&HEAD  CHID='Bluemt', Title='This is the Title ' / 

&TIME T_END=1.0 /

&DUMP WRITE_XYZ=.TRUE., DT_PL3D=0.1 /

&MESH IJK=185,183,875,XB=0,970734,0,970784,1094,1969/ 

&OBST XB= 0,5219,0,5276,1094,1311 /
&OBST XB= 0,5219,0,5276,1094,1310 /
&OBST XB= 0,5219,0,5276,1094,1305 /
&OBST XB= 0,5219,0,5276,1094,1299 /
&OBST XB= 0,5219,0,5276,1094,1310 /
&OBST XB= 0,5219,0,5276,1094,1290 /
&OBST XB= 0,5219,0,5276,1094,1279 /
&OBST XB= 0,5219,0,5276,1094,1268 /
&OBST XB= 0,5219,0,5276,1094,1259 /
&OBST XB= 0,5219,0,5276,1094,1255 /
&OBST XB= 0,5219,0,5276,1094,1241 /
&OBST XB= 0,5219,0,5276,1094,1235 /
&OBST XB= 0,5219,0,5276,1094,1239 /
&OBST XB= 0,5219,0,5276,1094,1249 /
&OBST XB= 0,5219,0,5276,1094,1246 /
&OBST XB= 0,5219,0,5276,1094,1241 /
&OBST XB= 0,5219,0,5276,1094,1237 /
&OBST XB= 0,5219,0,5276,1094,1233 /
&OBST XB= 0,5219,0,5276,1094,1226 /
&OBST XB= 0,5219,0,5276,1094,1229 /
&OBST XB= 0,5219,0,5276,1094,1234 /
&OBST XB= 0,5219,0,5276,1094,1233 /
&OBST XB= 0,5219,0,5276,1094,1236 /
&OBST XB= 0,5219,0,5276,1094,1226 /
&OBST XB= 0,5219,0,5276,1094,1215 /
&OBST XB= 0,5219,0,5276,1094,1231 /
&OBST XB= 0,5219,0,5276,1094,1234 /
&OBST XB= 0,5219,0,5276,1094,1237 /
&OBST XB= 0,5219,0,5276,1094,1241 /
&OBST XB= 0,5219,0,5276,1094,1242 /
&OBST XB= 0,5219,0,5276,1094,1241 /
&OBST XB= 0,5219,0,5276,1094,1248 /
&OBST XB= 0,5219,0,5276,1094,1242 /
&OBST XB= 0,5219,0,5276,1094,1235 /
&OBST XB= 0,5219,0,5276,1094,1226 /
&OBST XB= 0,5219,0,5276,1094,1217 /
&OBST XB= 0,5219,0,5276,1094,1227 /
&OBST XB= 0,5219,0,5276,1094,1218 /
&OBST XB= 0,5219,0,5276,1094,1196 /
&OBST XB= 0,5219,0,5276,1094,1187 /
&OBST XB= 0,5219,0,5276,1094,1200 /
&OBST XB= 0,5219,0,5276,1094,1195 /
&OBST XB= 0,5219,0,5276,1094,1188 /
&OBST XB= 0,5219,0,5276,1094,1183 /
&OBST XB= 0,5219,0,5276,1094,1180 /
&OBST XB= 0,5219,0,5276,1094,1191 /
&OBST XB= 0,5219,0,5276,1094,1195 /
&OBST XB= 0,5219,0,5276,1094,1201 /
&OBST XB= 0,5219,0,5276,1094,1205 /
&OBST XB= 0,5219,0,5276,1094,1221 /
&OBST XB= 0,5219,0,5276,1094,1222 /
&OBST XB= 0,5219,0,5276,1094,1220 /
&OBST XB= 0,5219,0,5276,1094,1220 /
&OBST XB= 0,5219,0,5276,1094,1217 /
&OBST XB= 0,5219,0,5276,1094,1207 /
&OBST XB= 0,5219,0,5276,1094,1188 /
&OBST XB= 0,5219,0,5276,1094,1170 /
&OBST XB= 0,5219,0,5276,1094,1153 /
&OBST XB= 0,5219,0,5276,1094,1167 /
&OBST XB= 0,5219,0,5276,1094,1186 /
&OBST XB= 0,5219,0,5276,1094,1202 /
&OBST XB= 0,5219,0,5276,1094,1212 /
&OBST XB= 0,5219,0,5276,1094,1222 /
&OBST XB= 0,5219,0,5276,1094,1244 /
&OBST XB= 0,5219,0,5276,1094,1253 /
&OBST XB= 0,5219,0,5276,1094,1272 /
&OBST XB= 0,5219,0,5276,1094,1278 /
&OBST XB= 0,5219,0,5276,1094,1293 /
&OBST XB= 0,5219,0,5276,1094,1291 /
&OBST XB= 0,5219,0,5276,1094,1281 /
&OBST XB= 0,5219,0,5276,1094,1267 /
&OBST XB= 0,5219,0,5276,1094,1236 /
&OBST XB= 0,5219,0,5276,1094,1221 /
&OBST XB= 0,5219,0,5276,1094,1199 /
&OBST XB= 0,5219,0,5276,1094,1185 /
&OBST XB= 0,5219,0,5276,1094,1172 /
&OBST XB= 0,5219,0,5276,1094,1185 /
&OBST XB= 0,5219,0,5276,1094,1200 /
&OBST XB= 0,5219,0,5276,1094,1230 /
&OBST XB= 0,5219,0,5276,1094,1245 /
&OBST XB= 0,5219,0,5276,1094,1264 /
&OBST XB= 0,5219,0,5276,1094,1271 /
&OBST XB= 0,5219,0,5276,1094,1274 /
&OBST XB= 0,5219,0,5276,1094,1277 /
&OBST XB= 0,5219,0,5276,1094,1277 /
&OBST XB= 0,5219,0,5276,1094,1289 /
&OBST XB= 0,5219,0,5276,1094,1288 /
&OBST XB= 0,5219,0,5276,1094,1287 /
&OBST XB= 0,5219,0,5276,1094,1290 /
&OBST XB= 0,5219,0,5276,1094,1306 /
&OBST XB= 0,5219,0,5276,1094,1307 /
&OBST XB= 0,5219,0,5276,1094,1309 /
&OBST XB= 0,5219,0,5276,1094,1309 /
&OBST XB= 0,5219,0,5276,1094,1310 /
&OBST XB= 0,5219,0,5276,1094,1329 /
&OBST XB= 0,5219,0,5276,1094,1328 /
&OBST XB= 0,5219,0,5276,1094,1327 /
&OBST XB= 0,5219,0,5276,1094,1322 /
&OBST XB= 0,5219,0,5276,1094,1320 /
&OBST XB= 0,5219,0,5276,1094,1311 /
&OBST XB= 0,5219,0,5276,1094,1307 /
&OBST XB= 0,5219,0,5276,1094,1310 /
&OBST XB= 0,5219,0,5276,1094,1317 /
&OBST XB= 0,5219,0,5276,1094,1342 /
&OBST XB= 0,5219,0,5276,1094,1348 /
&OBST XB= 0,5219,0,5276,1094,1352 /
&OBST XB= 0,5219,0,5276,1094,1343 /
&OBST XB= 0,5219,0,5276,1094,1324 /
&OBST XB= 0,5219,0,5276,1094,1305 /
&OBST XB= 0,5219,0,5276,1094,1288 /
&OBST XB= 0,5219,0,5276,1094,1264 /
&OBST XB= 0,5219,0,5276,1094,1230 /
&OBST XB= 0,5219,0,5276,1094,1208 /
&OBST XB= 0,5219,0,5276,1094,1200 /
&OBST XB= 0,5219,0,5276,1094,1207 /
&OBST XB= 0,5219,0,5276,1094,1216 /
&OBST XB= 0,5219,0,5276,1094,1242 /
&OBST XB= 0,5219,0,5276,1094,1252 /
&OBST XB= 0,5219,0,5276,1094,1276 /
&OBST XB= 0,5219,0,5276,1094,1289 /
&OBST XB= 0,5219,0,5276,1094,1310 /
&OBST XB= 0,5219,0,5276,1094,1327 /
&OBST XB= 0,5219,0,5276,1094,1342 /
&OBST XB= 0,5219,0,5276,1094,1355 /
&OBST XB= 0,5219,0,5276,1094,1367 /
&OBST XB= 0,5219,0,5276,1094,1392 /
&OBST XB= 0,5219,0,5276,1094,1395 /
&OBST XB= 0,5219,0,5276,1094,1394 /
&OBST XB= 0,5219,0,5276,1094,1389 /
&OBST XB= 0,5219,0,5276,1094,1385 /
&OBST XB= 0,5219,0,5276,1094,1394 /
&OBST XB= 0,5219,0,5276,1094,1386 /
&OBST XB= 0,5219,0,5276,1094,1380 /
&OBST XB= 0,5219,0,5276,1094,1375 /
&OBST XB= 0,5219,0,5276,1094,1375 /
&OBST XB= 0,5219,0,5276,1094,1371 /
&OBST XB= 0,5219,0,5276,1094,1369 /
&OBST XB= 0,5219,0,5276,1094,1364 /
&OBST XB= 0,5219,0,5276,1094,1350 /
&OBST XB= 0,5219,0,5276,1094,1347 /
&OBST XB= 0,5219,0,5276,1094,1339 /
&OBST XB= 0,5219,0,5276,1094,1329 /
&OBST XB= 0,5219,0,5276,1094,1320 /
&OBST XB= 0,5219,0,5276,1094,1305 /
&OBST XB= 0,5219,0,5276,1094,1304 /
&OBST XB= 0,5219,0,5276,1094,1299 /
&OBST XB= 0,5219,0,5276,1094,1293 /
&OBST XB= 0,5219,0,5276,1094,1281 /
&OBST XB= 0,5219,0,5276,1094,1257 /
&OBST XB= 0,5219,0,5276,1094,1244 /
&OBST XB= 0,5219,0,5276,1094,1235 /
&OBST XB= 0,5219,0,5276,1094,1224 /
&OBST XB= 0,5219,0,5276,1094,1211 /
&OBST XB= 0,5219,0,5276,1094,1205 /
&OBST XB= 0,5219,0,5276,1094,1196 /
&OBST XB= 0,5219,0,5276,1094,1185 /
&OBST XB= 0,5219,0,5276,1094,1173 /
&OBST XB= 0,5219,0,5276,1094,1151 /
&OBST XB= 0,5219,0,5276,1094,1126 /
&OBST XB= 0,5219,0,5276,1094,1116 /
&OBST XB= 0,5219,0,5276,1094,1105 /
&OBST XB= 0,5219,0,5276,1094,1094 /
&OBST XB= 0,5219,0,5276,1094,1095 /
&OBST XB= 0,5219,0,5276,1094,1106 /
&OBST XB= 0,5219,0,5276,1094,1124 /
&OBST XB= 0,5219,0,5276,1094,1136 /
&OBST XB= 0,5219,0,5276,1094,1158 /
&OBST XB= 0,5219,0,5276,1094,1165 /
&OBST XB= 0,5219,0,5276,1094,1168 /
&OBST XB= 0,5219,0,5276,1094,1166 /
&OBST XB= 0,5219,0,5276,1094,1167 /
&OBST XB= 0,5219,0,5276,1094,1163 /
&OBST XB= 0,5219,0,5276,1094,1166 /
&OBST XB= 0,5219,0,5276,1094,1168 /
&OBST XB= 0,5219,0,5276,1094,1170 /
&OBST XB= 0,5219,0,5276,1094,1183 /
&OBST XB= 0,5219,0,5276,1094,1180 /
&OBST XB= 0,5219,0,5276,1094,1174 /
&OBST XB= 0,5219,0,5276,1094,1159 /
&OBST XB= 0,5219,0,5276,1094,1164 /
&OBST XB= 0,5219,0,5276,1094,1156 /
&OBST XB= 0,5219,0,5276,1094,1147 /
&OBST XB= 0,5219,0,5276,1094,1138 /
&OBST XB= 0,5219,0,5276,1094,1128 /
&OBST XB= 0,5219,0,5276,1094,1121 /
&OBST XB= 5219,10438,5276,10552,1094,1327 /
&OBST XB= 5219,10438,5276,10552,1094,1326 /
&OBST XB= 5219,10438,5276,10552,1094,1324 /
&OBST XB= 5219,10438,5276,10552,1094,1336 /
&OBST XB= 5219,10438,5276,10552,1094,1329 /
&OBST XB= 5219,10438,5276,10552,1094,1317 /
&OBST XB= 5219,10438,5276,10552,1094,1292 /
&OBST XB= 5219,10438,5276,10552,1094,1280 /
&OBST XB= 5219,10438,5276,10552,1094,1274 /
&OBST XB= 5219,10438,5276,10552,1094,1256 /
&OBST XB= 5219,10438,5276,10552,1094,1243 /
&OBST XB= 5219,10438,5276,10552,1094,1247 /
&OBST XB= 5219,10438,5276,10552,1094,1264 /
&OBST XB= 5219,10438,5276,10552,1094,1263 /
&OBST XB= 5219,10438,5276,10552,1094,1259 /
&OBST XB= 5219,10438,5276,10552,1094,1253 /
&OBST XB= 5219,10438,5276,10552,1094,1248 /
&OBST XB= 5219,10438,5276,10552,1094,1249 /
&OBST XB= 5219,10438,5276,10552,1094,1240 /
&OBST XB= 5219,10438,5276,10552,1094,1237 /
&OBST XB= 5219,10438,5276,10552,1094,1244 /
&OBST XB= 5219,10438,5276,10552,1094,1251 /
&OBST XB= 5219,10438,5276,10552,1094,1243 /
&OBST XB= 5219,10438,5276,10552,1094,1233 /
&OBST XB= 5219,10438,5276,10552,1094,1221 /
&OBST XB= 5219,10438,5276,10552,1094,1220 /
&OBST XB= 5219,10438,5276,10552,1094,1245 /
&OBST XB= 5219,10438,5276,10552,1094,1252 /
&OBST XB= 5219,10438,5276,10552,1094,1256 /
&OBST XB= 5219,10438,5276,10552,1094,1256 /
&OBST XB= 5219,10438,5276,10552,1094,1270 /
&OBST XB= 5219,10438,5276,10552,1094,1266 /
&OBST XB= 5219,10438,5276,10552,1094,1261 /
&OBST XB= 5219,10438,5276,10552,1094,1252 /
&OBST XB= 5219,10438,5276,10552,1094,1245 /
&OBST XB= 5219,10438,5276,10552,1094,1255 /
&OBST XB= 5219,10438,5276,10552,1094,1243 /
&OBST XB= 5219,10438,5276,10552,1094,1233 /
&OBST XB= 5219,10438,5276,10552,1094,1224 /
&OBST XB= 5219,10438,5276,10552,1094,1230 /
&OBST XB= 5219,10438,5276,10552,1094,1219 /
&OBST XB= 5219,10438,5276,10552,1094,1215 /
&OBST XB= 5219,10438,5276,10552,1094,1208 /
&OBST XB= 5219,10438,5276,10552,1094,1201 /
&OBST XB= 5219,10438,5276,10552,1094,1211 /
&OBST XB= 5219,10438,5276,10552,1094,1204 /
&OBST XB= 5219,10438,5276,10552,1094,1211 /
&OBST XB= 5219,10438,5276,10552,1094,1218 /
&OBST XB= 5219,10438,5276,10552,1094,1234 /
&OBST XB= 5219,10438,5276,10552,1094,1235 /
&OBST XB= 5219,10438,5276,10552,1094,1235 /
&OBST XB= 5219,10438,5276,10552,1094,1235 /
&OBST XB= 5219,10438,5276,10552,1094,1233 /
&OBST XB= 5219,10438,5276,10552,1094,1216 /
&OBST XB= 5219,10438,5276,10552,1094,1199 /
&OBST XB= 5219,10438,5276,10552,1094,1178 /
&OBST XB= 5219,10438,5276,10552,1094,1160 /
&OBST XB= 5219,10438,5276,10552,1094,1148 /
&OBST XB= 5219,10438,5276,10552,1094,1161 /
&OBST XB= 5219,10438,5276,10552,1094,1178 /
&OBST XB= 5219,10438,5276,10552,1094,1211 /
&OBST XB= 5219,10438,5276,10552,1094,1220 /
&OBST XB= 5219,10438,5276,10552,1094,1243 /
&OBST XB= 5219,10438,5276,10552,1094,1253 /
&OBST XB= 5219,10438,5276,10552,1094,1263 /
&OBST XB= 5219,10438,5276,10552,1094,1272 /
&OBST XB= 5219,10438,5276,10552,1094,1297 /
&OBST XB= 5219,10438,5276,10552,1094,1303 /
&OBST XB= 5219,10438,5276,10552,1094,1298 /
&OBST XB= 5219,10438,5276,10552,1094,1286 /
&OBST XB= 5219,10438,5276,10552,1094,1271 /
&OBST XB= 5219,10438,5276,10552,1094,1259 /
&OBST XB= 5219,10438,5276,10552,1094,1240 /
&OBST XB= 5219,10438,5276,10552,1094,1200 /
&OBST XB= 5219,10438,5276,10552,1094,1185 /
&OBST XB= 5219,10438,5276,10552,1094,1180 /
&OBST XB= 5219,10438,5276,10552,1094,1190 /
&OBST XB= 5219,10438,5276,10552,1094,1205 /
&OBST XB= 5219,10438,5276,10552,1094,1221 /
&OBST XB= 5219,10438,5276,10552,1094,1235 /
&OBST XB= 5219,10438,5276,10552,1094,1271 /
&OBST XB= 5219,10438,5276,10552,1094,1279 /
&OBST XB= 5219,10438,5276,10552,1094,1285 /
&OBST XB= 5219,10438,5276,10552,1094,1287 /
&OBST XB= 5219,10438,5276,10552,1094,1299 /
&OBST XB= 5219,10438,5276,10552,1094,1301 /
&OBST XB= 5219,10438,5276,10552,1094,1303 /
&OBST XB= 5219,10438,5276,10552,1094,1304 /
&OBST XB= 5219,10438,5276,10552,1094,1304 /
&OBST XB= 5219,10438,5276,10552,1094,1322 /
&OBST XB= 5219,10438,5276,10552,1094,1324 /
&OBST XB= 5219,10438,5276,10552,1094,1325 /
&OBST XB= 5219,10438,5276,10552,1094,1326 /
&OBST XB= 5219,10438,5276,10552,1094,1347 /
&OBST XB= 5219,10438,5276,10552,1094,1347 /
&OBST XB= 5219,10438,5276,10552,1094,1346 /
&OBST XB= 5219,10438,5276,10552,1094,1345 /
&OBST XB= 5219,10438,5276,10552,1094,1341 /
&OBST XB= 5219,10438,5276,10552,1094,1343 /
&OBST XB= 5219,10438,5276,10552,1094,1321 /
&OBST XB= 5219,10438,5276,10552,1094,1322 /
&OBST XB= 5219,10438,5276,10552,1094,1328 /
&OBST XB= 5219,10438,5276,10552,1094,1352 /
&OBST XB= 5219,10438,5276,10552,1094,1356 /
&OBST XB= 5219,10438,5276,10552,1094,1361 /
&OBST XB= 5219,10438,5276,10552,1094,1359 /
&OBST XB= 5219,10438,5276,10552,1094,1341 /
&OBST XB= 5219,10438,5276,10552,1094,1316 /
&OBST XB= 5219,10438,5276,10552,1094,1297 /
&OBST XB= 5219,10438,5276,10552,1094,1277 /
&OBST XB= 5219,10438,5276,10552,1094,1256 /
&OBST XB= 5219,10438,5276,10552,1094,1228 /
&OBST XB= 5219,10438,5276,10552,1094,1213 /
&OBST XB= 5219,10438,5276,10552,1094,1216 /
&OBST XB= 5219,10438,5276,10552,1094,1226 /
&OBST XB= 5219,10438,5276,10552,1094,1233 /
&OBST XB= 5219,10438,5276,10552,1094,1261 /
&OBST XB= 5219,10438,5276,10552,1094,1268 /
&OBST XB= 5219,10438,5276,10552,1094,1275 /
&OBST XB= 5219,10438,5276,10552,1094,1287 /
&OBST XB= 5219,10438,5276,10552,1094,1306 /
&OBST XB= 5219,10438,5276,10552,1094,1328 /
&OBST XB= 5219,10438,5276,10552,1094,1345 /
&OBST XB= 5219,10438,5276,10552,1094,1358 /
&OBST XB= 5219,10438,5276,10552,1094,1369 /
&OBST XB= 5219,10438,5276,10552,1094,1380 /
&OBST XB= 5219,10438,5276,10552,1094,1398 /
&OBST XB= 5219,10438,5276,10552,1094,1402 /
&OBST XB= 5219,10438,5276,10552,1094,1402 /
&OBST XB= 5219,10438,5276,10552,1094,1404 /
&OBST XB= 5219,10438,5276,10552,1094,1403 /
&OBST XB= 5219,10438,5276,10552,1094,1398 /
&OBST XB= 5219,10438,5276,10552,1094,1391 /
&OBST XB= 5219,10438,5276,10552,1094,1379 /
&OBST XB= 5219,10438,5276,10552,1094,1373 /
&OBST XB= 5219,10438,5276,10552,1094,1371 /
&OBST XB= 5219,10438,5276,10552,1094,1370 /
&OBST XB= 5219,10438,5276,10552,1094,1367 /
&OBST XB= 5219,10438,5276,10552,1094,1352 /
&OBST XB= 5219,10438,5276,10552,1094,1342 /
&OBST XB= 5219,10438,5276,10552,1094,1334 /
&OBST XB= 5219,10438,5276,10552,1094,1323 /
&OBST XB= 5219,10438,5276,10552,1094,1312 /
&OBST XB= 5219,10438,5276,10552,1094,1292 /
&OBST XB= 5219,10438,5276,10552,1094,1290 /
&OBST XB= 5219,10438,5276,10552,1094,1291 /
&OBST XB= 5219,10438,5276,10552,1094,1282 /
&OBST XB= 5219,10438,5276,10552,1094,1259 /
&OBST XB= 5219,10438,5276,10552,1094,1248 /
&OBST XB= 5219,10438,5276,10552,1094,1237 /
&OBST XB= 5219,10438,5276,10552,1094,1227 /
&OBST XB= 5219,10438,5276,10552,1094,1220 /
&OBST XB= 5219,10438,5276,10552,1094,1206 /
&OBST XB= 5219,10438,5276,10552,1094,1196 /
&OBST XB= 5219,10438,5276,10552,1094,1187 /
&OBST XB= 5219,10438,5276,10552,1094,1173 /
&OBST XB= 5219,10438,5276,10552,1094,1149 /
&OBST XB= 5219,10438,5276,10552,1094,1136 /
&OBST XB= 5219,10438,5276,10552,1094,1125 /
&OBST XB= 5219,10438,5276,10552,1094,1108 /
&OBST XB= 5219,10438,5276,10552,1094,1101 /
&OBST XB= 5219,10438,5276,10552,1094,1095 /
&OBST XB= 5219,10438,5276,10552,1094,1103 /
&OBST XB= 5219,10438,5276,10552,1094,1115 /
&OBST XB= 5219,10438,5276,10552,1094,1126 /
&OBST XB= 5219,10438,5276,10552,1094,1151 /
&OBST XB= 5219,10438,5276,10552,1094,1167 /
&OBST XB= 5219,10438,5276,10552,1094,1174 /
&OBST XB= 5219,10438,5276,10552,1094,1175 /
&OBST XB= 5219,10438,5276,10552,1094,1172 /
&OBST XB= 5219,10438,5276,10552,1094,1175 /
&OBST XB= 5219,10438,5276,10552,1094,1173 /
&OBST XB= 5219,10438,5276,10552,1094,1174 /
&OBST XB= 5219,10438,5276,10552,1094,1182 /
&OBST XB= 5219,10438,5276,10552,1094,1198 /
&OBST XB= 5219,10438,5276,10552,1094,1196 /
&OBST XB= 5219,10438,5276,10552,1094,1193 /
&OBST XB= 5219,10438,5276,10552,1094,1186 /
&OBST XB= 5219,10438,5276,10552,1094,1180 /
&OBST XB= 5219,10438,5276,10552,1094,1176 /
&OBST XB= 5219,10438,5276,10552,1094,1168 /
&OBST XB= 5219,10438,5276,10552,1094,1160 /
&OBST XB= 5219,10438,5276,10552,1094,1150 /
&OBST XB= 5219,10438,5276,10552,1094,1152 /
&OBST XB= 5219,10438,5276,10552,1094,1142 /
&OBST XB= 10438,15657,10552,15828,1094,1339 /
&OBST XB= 10438,15657,10552,15828,1094,1344 /
&OBST XB= 10438,15657,10552,15828,1094,1341 /
&OBST XB= 10438,15657,10552,15828,1094,1351 /
&OBST XB= 10438,15657,10552,15828,1094,1344 /
&OBST XB= 10438,15657,10552,15828,1094,1334 /
&OBST XB= 10438,15657,10552,15828,1094,1317 /
&OBST XB= 10438,15657,10552,15828,1094,1311 /
&OBST XB= 10438,15657,10552,15828,1094,1277 /
&OBST XB= 10438,15657,10552,15828,1094,1259 /
&OBST XB= 10438,15657,10552,15828,1094,1254 /
&OBST XB= 10438,15657,10552,15828,1094,1260 /
&OBST XB= 10438,15657,10552,15828,1094,1280 /
&OBST XB= 10438,15657,10552,15828,1094,1283 /
&OBST XB= 10438,15657,10552,15828,1094,1274 /
&OBST XB= 10438,15657,10552,15828,1094,1266 /
&OBST XB= 10438,15657,10552,15828,1094,1265 /
&OBST XB= 10438,15657,10552,15828,1094,1255 /
&OBST XB= 10438,15657,10552,15828,1094,1248 /
&OBST XB= 10438,15657,10552,15828,1094,1251 /
&OBST XB= 10438,15657,10552,15828,1094,1254 /
&OBST XB= 10438,15657,10552,15828,1094,1256 /
&OBST XB= 10438,15657,10552,15828,1094,1248 /
&OBST XB= 10438,15657,10552,15828,1094,1237 /
&OBST XB= 10438,15657,10552,15828,1094,1227 /
&OBST XB= 10438,15657,10552,15828,1094,1232 /
&OBST XB= 10438,15657,10552,15828,1094,1243 /
&OBST XB= 10438,15657,10552,15828,1094,1253 /
&OBST XB= 10438,15657,10552,15828,1094,1266 /
&OBST XB= 10438,15657,10552,15828,1094,1269 /
&OBST XB= 10438,15657,10552,15828,1094,1282 /
&OBST XB= 10438,15657,10552,15828,1094,1281 /
&OBST XB= 10438,15657,10552,15828,1094,1277 /
&OBST XB= 10438,15657,10552,15828,1094,1273 /
&OBST XB= 10438,15657,10552,15828,1094,1280 /
&OBST XB= 10438,15657,10552,15828,1094,1271 /
&OBST XB= 10438,15657,10552,15828,1094,1258 /
&OBST XB= 10438,15657,10552,15828,1094,1246 /
&OBST XB= 10438,15657,10552,15828,1094,1238 /
&OBST XB= 10438,15657,10552,15828,1094,1242 /
&OBST XB= 10438,15657,10552,15828,1094,1237 /
&OBST XB= 10438,15657,10552,15828,1094,1231 /
&OBST XB= 10438,15657,10552,15828,1094,1226 /
&OBST XB= 10438,15657,10552,15828,1094,1231 /
&OBST XB= 10438,15657,10552,15828,1094,1223 /
&OBST XB= 10438,15657,10552,15828,1094,1216 /
&OBST XB= 10438,15657,10552,15828,1094,1217 /
&OBST XB= 10438,15657,10552,15828,1094,1226 /
&OBST XB= 10438,15657,10552,15828,1094,1245 /
&OBST XB= 10438,15657,10552,15828,1094,1246 /
&OBST XB= 10438,15657,10552,15828,1094,1245 /
&OBST XB= 10438,15657,10552,15828,1094,1243 /
&OBST XB= 10438,15657,10552,15828,1094,1233 /
&OBST XB= 10438,15657,10552,15828,1094,1219 /
&OBST XB= 10438,15657,10552,15828,1094,1184 /
&OBST XB= 10438,15657,10552,15828,1094,1167 /
&OBST XB= 10438,15657,10552,15828,1094,1150 /
&OBST XB= 10438,15657,10552,15828,1094,1157 /
&OBST XB= 10438,15657,10552,15828,1094,1171 /
&OBST XB= 10438,15657,10552,15828,1094,1192 /
&OBST XB= 10438,15657,10552,15828,1094,1207 /
&OBST XB= 10438,15657,10552,15828,1094,1241 /
&OBST XB= 10438,15657,10552,15828,1094,1253 /
&OBST XB= 10438,15657,10552,15828,1094,1262 /
&OBST XB= 10438,15657,10552,15828,1094,1272 /
&OBST XB= 10438,15657,10552,15828,1094,1279 /
&OBST XB= 10438,15657,10552,15828,1094,1298 /
&OBST XB= 10438,15657,10552,15828,1094,1307 /
&OBST XB= 10438,15657,10552,15828,1094,1303 /
&OBST XB= 10438,15657,10552,15828,1094,1289 /
&OBST XB= 10438,15657,10552,15828,1094,1279 /
&OBST XB= 10438,15657,10552,15828,1094,1260 /
&OBST XB= 10438,15657,10552,15828,1094,1242 /
&OBST XB= 10438,15657,10552,15828,1094,1224 /
&OBST XB= 10438,15657,10552,15828,1094,1184 /
&OBST XB= 10438,15657,10552,15828,1094,1184 /
&OBST XB= 10438,15657,10552,15828,1094,1194 /
&OBST XB= 10438,15657,10552,15828,1094,1209 /
&OBST XB= 10438,15657,10552,15828,1094,1223 /
&OBST XB= 10438,15657,10552,15828,1094,1245 /
&OBST XB= 10438,15657,10552,15828,1094,1263 /
&OBST XB= 10438,15657,10552,15828,1094,1288 /
&OBST XB= 10438,15657,10552,15828,1094,1295 /
&OBST XB= 10438,15657,10552,15828,1094,1298 /
&OBST XB= 10438,15657,10552,15828,1094,1312 /
&OBST XB= 10438,15657,10552,15828,1094,1314 /
&OBST XB= 10438,15657,10552,15828,1094,1316 /
&OBST XB= 10438,15657,10552,15828,1094,1318 /
&OBST XB= 10438,15657,10552,15828,1094,1338 /
&OBST XB= 10438,15657,10552,15828,1094,1339 /
&OBST XB= 10438,15657,10552,15828,1094,1340 /
&OBST XB= 10438,15657,10552,15828,1094,1343 /
&OBST XB= 10438,15657,10552,15828,1094,1345 /
&OBST XB= 10438,15657,10552,15828,1094,1361 /
&OBST XB= 10438,15657,10552,15828,1094,1360 /
&OBST XB= 10438,15657,10552,15828,1094,1358 /
&OBST XB= 10438,15657,10552,15828,1094,1356 /
&OBST XB= 10438,15657,10552,15828,1094,1361 /
&OBST XB= 10438,15657,10552,15828,1094,1352 /
&OBST XB= 10438,15657,10552,15828,1094,1340 /
&OBST XB= 10438,15657,10552,15828,1094,1335 /
&OBST XB= 10438,15657,10552,15828,1094,1349 /
&OBST XB= 10438,15657,10552,15828,1094,1364 /
&OBST XB= 10438,15657,10552,15828,1094,1368 /
&OBST XB= 10438,15657,10552,15828,1094,1366 /
&OBST XB= 10438,15657,10552,15828,1094,1356 /
&OBST XB= 10438,15657,10552,15828,1094,1333 /
&OBST XB= 10438,15657,10552,15828,1094,1321 /
&OBST XB= 10438,15657,10552,15828,1094,1287 /
&OBST XB= 10438,15657,10552,15828,1094,1265 /
&OBST XB= 10438,15657,10552,15828,1094,1247 /
&OBST XB= 10438,15657,10552,15828,1094,1219 /
&OBST XB= 10438,15657,10552,15828,1094,1213 /
&OBST XB= 10438,15657,10552,15828,1094,1221 /
&OBST XB= 10438,15657,10552,15828,1094,1244 /
&OBST XB= 10438,15657,10552,15828,1094,1269 /
&OBST XB= 10438,15657,10552,15828,1094,1276 /
&OBST XB= 10438,15657,10552,15828,1094,1284 /
&OBST XB= 10438,15657,10552,15828,1094,1291 /
&OBST XB= 10438,15657,10552,15828,1094,1297 /
&OBST XB= 10438,15657,10552,15828,1094,1313 /
&OBST XB= 10438,15657,10552,15828,1094,1327 /
&OBST XB= 10438,15657,10552,15828,1094,1343 /
&OBST XB= 10438,15657,10552,15828,1094,1357 /
&OBST XB= 10438,15657,10552,15828,1094,1367 /
&OBST XB= 10438,15657,10552,15828,1094,1379 /
&OBST XB= 10438,15657,10552,15828,1094,1391 /
&OBST XB= 10438,15657,10552,15828,1094,1399 /
&OBST XB= 10438,15657,10552,15828,1094,1406 /
&OBST XB= 10438,15657,10552,15828,1094,1407 /
&OBST XB= 10438,15657,10552,15828,1094,1405 /
&OBST XB= 10438,15657,10552,15828,1094,1396 /
&OBST XB= 10438,15657,10552,15828,1094,1385 /
&OBST XB= 10438,15657,10552,15828,1094,1373 /
&OBST XB= 10438,15657,10552,15828,1094,1365 /
&OBST XB= 10438,15657,10552,15828,1094,1363 /
&OBST XB= 10438,15657,10552,15828,1094,1360 /
&OBST XB= 10438,15657,10552,15828,1094,1354 /
&OBST XB= 10438,15657,10552,15828,1094,1339 /
&OBST XB= 10438,15657,10552,15828,1094,1336 /
&OBST XB= 10438,15657,10552,15828,1094,1331 /
&OBST XB= 10438,15657,10552,15828,1094,1313 /
&OBST XB= 10438,15657,10552,15828,1094,1291 /
&OBST XB= 10438,15657,10552,15828,1094,1282 /
&OBST XB= 10438,15657,10552,15828,1094,1279 /
&OBST XB= 10438,15657,10552,15828,1094,1278 /
&OBST XB= 10438,15657,10552,15828,1094,1263 /
&OBST XB= 10438,15657,10552,15828,1094,1249 /
&OBST XB= 10438,15657,10552,15828,1094,1240 /
&OBST XB= 10438,15657,10552,15828,1094,1230 /
&OBST XB= 10438,15657,10552,15828,1094,1222 /
&OBST XB= 10438,15657,10552,15828,1094,1205 /
&OBST XB= 10438,15657,10552,15828,1094,1194 /
&OBST XB= 10438,15657,10552,15828,1094,1188 /
&OBST XB= 10438,15657,10552,15828,1094,1171 /
&OBST XB= 10438,15657,10552,15828,1094,1150 /
&OBST XB= 10438,15657,10552,15828,1094,1137 /
&OBST XB= 10438,15657,10552,15828,1094,1131 /
&OBST XB= 10438,15657,10552,15828,1094,1126 /
&OBST XB= 10438,15657,10552,15828,1094,1120 /
&OBST XB= 10438,15657,10552,15828,1094,1110 /
&OBST XB= 10438,15657,10552,15828,1094,1099 /
&OBST XB= 10438,15657,10552,15828,1094,1106 /
&OBST XB= 10438,15657,10552,15828,1094,1119 /
&OBST XB= 10438,15657,10552,15828,1094,1136 /
&OBST XB= 10438,15657,10552,15828,1094,1155 /
&OBST XB= 10438,15657,10552,15828,1094,1168 /
&OBST XB= 10438,15657,10552,15828,1094,1181 /
&OBST XB= 10438,15657,10552,15828,1094,1182 /
&OBST XB= 10438,15657,10552,15828,1094,1187 /
&OBST XB= 10438,15657,10552,15828,1094,1185 /
&OBST XB= 10438,15657,10552,15828,1094,1184 /
&OBST XB= 10438,15657,10552,15828,1094,1188 /
&OBST XB= 10438,15657,10552,15828,1094,1205 /
&OBST XB= 10438,15657,10552,15828,1094,1210 /
&OBST XB= 10438,15657,10552,15828,1094,1211 /
&OBST XB= 10438,15657,10552,15828,1094,1208 /
&OBST XB= 10438,15657,10552,15828,1094,1200 /
&OBST XB= 10438,15657,10552,15828,1094,1209 /
&OBST XB= 10438,15657,10552,15828,1094,1198 /
&OBST XB= 10438,15657,10552,15828,1094,1188 /
&OBST XB= 10438,15657,10552,15828,1094,1170 /
&OBST XB= 10438,15657,10552,15828,1094,1172 /
&OBST XB= 10438,15657,10552,15828,1094,1164 /
&OBST XB= 10438,15657,10552,15828,1094,1155 /
&OBST XB= 15657,20876,15828,21104,1094,1359 /
&OBST XB= 15657,20876,15828,21104,1094,1365 /
&OBST XB= 15657,20876,15828,21104,1094,1388 /
&OBST XB= 15657,20876,15828,21104,1094,1368 /
&OBST XB= 15657,20876,15828,21104,1094,1357 /
&OBST XB= 15657,20876,15828,21104,1094,1344 /
&OBST XB= 15657,20876,15828,21104,1094,1329 /
&OBST XB= 15657,20876,15828,21104,1094,1315 /
&OBST XB= 15657,20876,15828,21104,1094,1295 /
&OBST XB= 15657,20876,15828,21104,1094,1264 /
&OBST XB= 15657,20876,15828,21104,1094,1268 /
&OBST XB= 15657,20876,15828,21104,1094,1290 /
&OBST XB= 15657,20876,15828,21104,1094,1297 /
&OBST XB= 15657,20876,15828,21104,1094,1300 /
&OBST XB= 15657,20876,15828,21104,1094,1295 /
&OBST XB= 15657,20876,15828,21104,1094,1287 /
&OBST XB= 15657,20876,15828,21104,1094,1270 /
&OBST XB= 15657,20876,15828,21104,1094,1261 /
&OBST XB= 15657,20876,15828,21104,1094,1261 /
&OBST XB= 15657,20876,15828,21104,1094,1264 /
&OBST XB= 15657,20876,15828,21104,1094,1270 /
&OBST XB= 15657,20876,15828,21104,1094,1266 /
&OBST XB= 15657,20876,15828,21104,1094,1260 /
&OBST XB= 15657,20876,15828,21104,1094,1242 /
&OBST XB= 15657,20876,15828,21104,1094,1232 /
&OBST XB= 15657,20876,15828,21104,1094,1237 /
&OBST XB= 15657,20876,15828,21104,1094,1247 /
&OBST XB= 15657,20876,15828,21104,1094,1257 /
&OBST XB= 15657,20876,15828,21104,1094,1266 /
&OBST XB= 15657,20876,15828,21104,1094,1285 /
&OBST XB= 15657,20876,15828,21104,1094,1291 /
&OBST XB= 15657,20876,15828,21104,1094,1293 /
&OBST XB= 15657,20876,15828,21104,1094,1293 /
&OBST XB= 15657,20876,15828,21104,1094,1291 /
&OBST XB= 15657,20876,15828,21104,1094,1302 /
&OBST XB= 15657,20876,15828,21104,1094,1296 /
&OBST XB= 15657,20876,15828,21104,1094,1269 /
&OBST XB= 15657,20876,15828,21104,1094,1257 /
&OBST XB= 15657,20876,15828,21104,1094,1261 /
&OBST XB= 15657,20876,15828,21104,1094,1254 /
&OBST XB= 15657,20876,15828,21104,1094,1249 /
&OBST XB= 15657,20876,15828,21104,1094,1245 /
&OBST XB= 15657,20876,15828,21104,1094,1240 /
&OBST XB= 15657,20876,15828,21104,1094,1238 /
&OBST XB= 15657,20876,15828,21104,1094,1233 /
&OBST XB= 15657,20876,15828,21104,1094,1227 /
&OBST XB= 15657,20876,15828,21104,1094,1230 /
&OBST XB= 15657,20876,15828,21104,1094,1250 /
&OBST XB= 15657,20876,15828,21104,1094,1256 /
&OBST XB= 15657,20876,15828,21104,1094,1252 /
&OBST XB= 15657,20876,15828,21104,1094,1249 /
&OBST XB= 15657,20876,15828,21104,1094,1232 /
&OBST XB= 15657,20876,15828,21104,1094,1220 /
&OBST XB= 15657,20876,15828,21104,1094,1207 /
&OBST XB= 15657,20876,15828,21104,1094,1190 /
&OBST XB= 15657,20876,15828,21104,1094,1172 /
&OBST XB= 15657,20876,15828,21104,1094,1156 /
&OBST XB= 15657,20876,15828,21104,1094,1165 /
&OBST XB= 15657,20876,15828,21104,1094,1181 /
&OBST XB= 15657,20876,15828,21104,1094,1202 /
&OBST XB= 15657,20876,15828,21104,1094,1226 /
&OBST XB= 15657,20876,15828,21104,1094,1240 /
&OBST XB= 15657,20876,15828,21104,1094,1252 /
&OBST XB= 15657,20876,15828,21104,1094,1271 /
&OBST XB= 15657,20876,15828,21104,1094,1280 /
&OBST XB= 15657,20876,15828,21104,1094,1298 /
&OBST XB= 15657,20876,15828,21104,1094,1308 /
&OBST XB= 15657,20876,15828,21104,1094,1317 /
&OBST XB= 15657,20876,15828,21104,1094,1318 /
&OBST XB= 15657,20876,15828,21104,1094,1295 /
&OBST XB= 15657,20876,15828,21104,1094,1283 /
&OBST XB= 15657,20876,15828,21104,1094,1263 /
&OBST XB= 15657,20876,15828,21104,1094,1243 /
&OBST XB= 15657,20876,15828,21104,1094,1224 /
&OBST XB= 15657,20876,15828,21104,1094,1200 /
&OBST XB= 15657,20876,15828,21104,1094,1187 /
&OBST XB= 15657,20876,15828,21104,1094,1198 /
&OBST XB= 15657,20876,15828,21104,1094,1213 /
&OBST XB= 15657,20876,15828,21104,1094,1230 /
&OBST XB= 15657,20876,15828,21104,1094,1250 /
&OBST XB= 15657,20876,15828,21104,1094,1269 /
&OBST XB= 15657,20876,15828,21104,1094,1284 /
&OBST XB= 15657,20876,15828,21104,1094,1306 /
&OBST XB= 15657,20876,15828,21104,1094,1320 /
&OBST XB= 15657,20876,15828,21104,1094,1324 /
&OBST XB= 15657,20876,15828,21104,1094,1327 /
&OBST XB= 15657,20876,15828,21104,1094,1330 /
&OBST XB= 15657,20876,15828,21104,1094,1348 /
&OBST XB= 15657,20876,15828,21104,1094,1350 /
&OBST XB= 15657,20876,15828,21104,1094,1354 /
&OBST XB= 15657,20876,15828,21104,1094,1356 /
&OBST XB= 15657,20876,15828,21104,1094,1356 /
&OBST XB= 15657,20876,15828,21104,1094,1374 /
&OBST XB= 15657,20876,15828,21104,1094,1376 /
&OBST XB= 15657,20876,15828,21104,1094,1377 /
&OBST XB= 15657,20876,15828,21104,1094,1375 /
&OBST XB= 15657,20876,15828,21104,1094,1377 /
&OBST XB= 15657,20876,15828,21104,1094,1367 /
&OBST XB= 15657,20876,15828,21104,1094,1357 /
&OBST XB= 15657,20876,15828,21104,1094,1349 /
&OBST XB= 15657,20876,15828,21104,1094,1350 /
&OBST XB= 15657,20876,15828,21104,1094,1367 /
&OBST XB= 15657,20876,15828,21104,1094,1371 /
&OBST XB= 15657,20876,15828,21104,1094,1368 /
&OBST XB= 15657,20876,15828,21104,1094,1355 /
&OBST XB= 15657,20876,15828,21104,1094,1326 /
&OBST XB= 15657,20876,15828,21104,1094,1315 /
&OBST XB= 15657,20876,15828,21104,1094,1306 /
&OBST XB= 15657,20876,15828,21104,1094,1290 /
&OBST XB= 15657,20876,15828,21104,1094,1255 /
&OBST XB= 15657,20876,15828,21104,1094,1224 /
&OBST XB= 15657,20876,15828,21104,1094,1217 /
&OBST XB= 15657,20876,15828,21104,1094,1226 /
&OBST XB= 15657,20876,15828,21104,1094,1241 /
&OBST XB= 15657,20876,15828,21104,1094,1268 /
&OBST XB= 15657,20876,15828,21104,1094,1274 /
&OBST XB= 15657,20876,15828,21104,1094,1292 /
&OBST XB= 15657,20876,15828,21104,1094,1302 /
&OBST XB= 15657,20876,15828,21104,1094,1308 /
&OBST XB= 15657,20876,15828,21104,1094,1327 /
&OBST XB= 15657,20876,15828,21104,1094,1326 /
&OBST XB= 15657,20876,15828,21104,1094,1322 /
&OBST XB= 15657,20876,15828,21104,1094,1342 /
&OBST XB= 15657,20876,15828,21104,1094,1354 /
&OBST XB= 15657,20876,15828,21104,1094,1366 /
&OBST XB= 15657,20876,15828,21104,1094,1378 /
&OBST XB= 15657,20876,15828,21104,1094,1390 /
&OBST XB= 15657,20876,15828,21104,1094,1399 /
&OBST XB= 15657,20876,15828,21104,1094,1406 /
&OBST XB= 15657,20876,15828,21104,1094,1409 /
&OBST XB= 15657,20876,15828,21104,1094,1403 /
&OBST XB= 15657,20876,15828,21104,1094,1391 /
&OBST XB= 15657,20876,15828,21104,1094,1380 /
&OBST XB= 15657,20876,15828,21104,1094,1369 /
&OBST XB= 15657,20876,15828,21104,1094,1358 /
&OBST XB= 15657,20876,15828,21104,1094,1354 /
&OBST XB= 15657,20876,15828,21104,1094,1347 /
&OBST XB= 15657,20876,15828,21104,1094,1330 /
&OBST XB= 15657,20876,15828,21104,1094,1326 /
&OBST XB= 15657,20876,15828,21104,1094,1323 /
&OBST XB= 15657,20876,15828,21104,1094,1318 /