&HEAD  CHID='BRC', Title='This is the Title ' / 

&TIME T_END=1.0 /

&DUMP WRITE_XYZ=.TRUE., DT_PL3D=0.1 /

&MESH IJK=19,18,121,XB=0,914652,0,965484,0,1309/


&OBST XB= 0,50814,0,53638,0,1307 /
&OBST XB= 0,50814,0,53638,0,1309 /
&OBST XB= 0,50814,0,53638,0,1276 /
&OBST XB= 0,50814,0,53638,0,1236 /
&OBST XB= 0,50814,0,53638,0,1193 /
&OBST XB= 0,50814,0,53638,0,1191 /
&OBST XB= 0,50814,0,53638,0,1191 /
&OBST XB= 0,50814,0,53638,0,1191 /
&OBST XB= 0,50814,0,53638,0,1191 /
&OBST XB= 0,50814,0,53638,0,1191 /
&OBST XB= 0,50814,0,53638,0,1191 /
&OBST XB= 0,50814,0,53638,0,1191 /
&OBST XB= 0,50814,0,53638,0,1191 /
&OBST XB= 0,50814,0,53638,0,1191 /
&OBST XB= 0,50814,0,53638,0,1191 /
&OBST XB= 0,50814,0,53638,0,1191 /
&OBST XB= 0,50814,0,53638,0,1191 /
&OBST XB= 0,50814,0,53638,0,1191 /
&OBST XB= 0,50814,0,53638,0,1191 /
&OBST XB= 50814,101628,53638,107276,0,1277 /
&OBST XB= 50814,101628,53638,107276,0,1280 /
&OBST XB= 50814,101628,53638,107276,0,1212 /
&OBST XB= 50814,101628,53638,107276,0,1200 /
&OBST XB= 50814,101628,53638,107276,0,1193 /
&OBST XB= 50814,101628,53638,107276,0,1191 /
&OBST XB= 50814,101628,53638,107276,0,1191 /
&OBST XB= 50814,101628,53638,107276,0,1191 /
&OBST XB= 50814,101628,53638,107276,0,1191 /
&OBST XB= 50814,101628,53638,107276,0,1191 /
&OBST XB= 50814,101628,53638,107276,0,1191 /
&OBST XB= 50814,101628,53638,107276,0,1191 /
&OBST XB= 50814,101628,53638,107276,0,1191 /
&OBST XB= 50814,101628,53638,107276,0,1191 /
&OBST XB= 50814,101628,53638,107276,0,1191 /
&OBST XB= 50814,101628,53638,107276,0,1191 /
&OBST XB= 50814,101628,53638,107276,0,1191 /
&OBST XB= 50814,101628,53638,107276,0,1191 /
&OBST XB= 50814,101628,53638,107276,0,1191 /
&OBST XB= 101628,152442,107276,160914,0,1271 /
&OBST XB= 101628,152442,107276,160914,0,1261 /
&OBST XB= 101628,152442,107276,160914,0,1203 /
&OBST XB= 101628,152442,107276,160914,0,1193 /
&OBST XB= 101628,152442,107276,160914,0,1191 /
&OBST XB= 101628,152442,107276,160914,0,1191 /
&OBST XB= 101628,152442,107276,160914,0,1191 /
&OBST XB= 101628,152442,107276,160914,0,1191 /
&OBST XB= 101628,152442,107276,160914,0,1191 /
&OBST XB= 101628,152442,107276,160914,0,1191 /
&OBST XB= 101628,152442,107276,160914,0,1191 /
&OBST XB= 101628,152442,107276,160914,0,1191 /
&OBST XB= 101628,152442,107276,160914,0,1191 /
&OBST XB= 101628,152442,107276,160914,0,1191 /
&OBST XB= 101628,152442,107276,160914,0,1191 /
&OBST XB= 101628,152442,107276,160914,0,1191 /
&OBST XB= 101628,152442,107276,160914,0,1191 /
&OBST XB= 101628,152442,107276,160914,0,1191 /
&OBST XB= 101628,152442,107276,160914,0,1191 /
&OBST XB= 152442,203256,160914,214552,0,1263 /
&OBST XB= 152442,203256,160914,214552,0,1218 /
&OBST XB= 152442,203256,160914,214552,0,1210 /
&OBST XB= 152442,203256,160914,214552,0,1191 /
&OBST XB= 152442,203256,160914,214552,0,1191 /
&OBST XB= 152442,203256,160914,214552,0,1191 /
&OBST XB= 152442,203256,160914,214552,0,1191 /
&OBST XB= 152442,203256,160914,214552,0,1191 /
&OBST XB= 152442,203256,160914,214552,0,1191 /
&OBST XB= 152442,203256,160914,214552,0,1191 /
&OBST XB= 152442,203256,160914,214552,0,1191 /
&OBST XB= 152442,203256,160914,214552,0,1191 /
&OBST XB= 152442,203256,160914,214552,0,1191 /
&OBST XB= 152442,203256,160914,214552,0,1191 /
&OBST XB= 152442,203256,160914,214552,0,1191 /
&OBST XB= 152442,203256,160914,214552,0,1191 /
&OBST XB= 152442,203256,160914,214552,0,1191 /
&OBST XB= 152442,203256,160914,214552,0,1191 /
&OBST XB= 152442,203256,160914,214552,0,1191 /
&OBST XB= 203256,254070,214552,268190,0,1196 /
&OBST XB= 203256,254070,214552,268190,0,1194 /
&OBST XB= 203256,254070,214552,268190,0,1193 /
&OBST XB= 203256,254070,214552,268190,0,1191 /
&OBST XB= 203256,254070,214552,268190,0,1191 /
&OBST XB= 203256,254070,214552,268190,0,1191 /
&OBST XB= 203256,254070,214552,268190,0,1191 /
&OBST XB= 203256,254070,214552,268190,0,1191 /
&OBST XB= 203256,254070,214552,268190,0,1191 /
&OBST XB= 203256,254070,214552,268190,0,1191 /
&OBST XB= 203256,254070,214552,268190,0,1191 /
&OBST XB= 203256,254070,214552,268190,0,1191 /
&OBST XB= 203256,254070,214552,268190,0,1191 /
&OBST XB= 203256,254070,214552,268190,0,1191 /
&OBST XB= 203256,254070,214552,268190,0,1191 /
&OBST XB= 203256,254070,214552,268190,0,1191 /
&OBST XB= 203256,254070,214552,268190,0,1191 /
&OBST XB= 203256,254070,214552,268190,0,1191 /
&OBST XB= 203256,254070,214552,268190,0,1191 /
&OBST XB= 254070,304884,268190,321828,0,1198 /
&OBST XB= 254070,304884,268190,321828,0,1191 /
&OBST XB= 254070,304884,268190,321828,0,1191 /
&OBST XB= 254070,304884,268190,321828,0,1191 /
&OBST XB= 254070,304884,268190,321828,0,1191 /
&OBST XB= 254070,304884,268190,321828,0,1191 /
&OBST XB= 254070,304884,268190,321828,0,1191 /
&OBST XB= 254070,304884,268190,321828,0,1191 /
&OBST XB= 254070,304884,268190,321828,0,1191 /
&OBST XB= 254070,304884,268190,321828,0,1191 /
&OBST XB= 254070,304884,268190,321828,0,1191 /
&OBST XB= 254070,304884,268190,321828,0,1191 /
&OBST XB= 254070,304884,268190,321828,0,1191 /
&OBST XB= 254070,304884,268190,321828,0,1191 /
&OBST XB= 254070,304884,268190,321828,0,1191 /
&OBST XB= 254070,304884,268190,321828,0,1191 /
&OBST XB= 254070,304884,268190,321828,0,1191 /
&OBST XB= 254070,304884,268190,321828,0,1191 /
&OBST XB= 254070,304884,268190,321828,0,1191 /
&OBST XB= 304884,355698,321828,375466,0,1195 /
&OBST XB= 304884,355698,321828,375466,0,1191 /
&OBST XB= 304884,355698,321828,375466,0,1191 /
&OBST XB= 304884,355698,321828,375466,0,1191 /
&OBST XB= 304884,355698,321828,375466,0,1191 /
&OBST XB= 304884,355698,321828,375466,0,1191 /
&OBST XB= 304884,355698,321828,375466,0,1191 /
&OBST XB= 304884,355698,321828,375466,0,1191 /
&OBST XB= 304884,355698,321828,375466,0,1191 /
&OBST XB= 304884,355698,321828,375466,0,1191 /
&OBST XB= 304884,355698,321828,375466,0,1191 /
&OBST XB= 304884,355698,321828,375466,0,1191 /
&OBST XB= 304884,355698,321828,375466,0,1191 /
&OBST XB= 304884,355698,321828,375466,0,1191 /
&OBST XB= 304884,355698,321828,375466,0,1191 /
&OBST XB= 304884,355698,321828,375466,0,1191 /
&OBST XB= 304884,355698,321828,375466,0,1191 /
&OBST XB= 304884,355698,321828,375466,0,1191 /
&OBST XB= 304884,355698,321828,375466,0,1191 /
&OBST XB= 355698,406512,375466,429104,0,1191 /
&OBST XB= 355698,406512,375466,429104,0,1191 /
&OBST XB= 355698,406512,375466,429104,0,1191 /
&OBST XB= 355698,406512,375466,429104,0,1191 /
&OBST XB= 355698,406512,375466,429104,0,1191 /
&OBST XB= 355698,406512,375466,429104,0,1191 /
&OBST XB= 355698,406512,375466,429104,0,1191 /
&OBST XB= 355698,406512,375466,429104,0,1191 /
&OBST XB= 355698,406512,375466,429104,0,1191 /
&OBST XB= 355698,406512,375466,429104,0,1191 /
&OBST XB= 355698,406512,375466,429104,0,1191 /
&OBST XB= 355698,406512,375466,429104,0,1191 /
&OBST XB= 355698,406512,375466,429104,0,1191 /
&OBST XB= 355698,406512,375466,429104,0,1191 /
&OBST XB= 355698,406512,375466,429104,0,1191 /
&OBST XB= 355698,406512,375466,429104,0,1191 /
&OBST XB= 355698,406512,375466,429104,0,1191 /
&OBST XB= 355698,406512,375466,429104,0,1191 /
&OBST XB= 355698,406512,375466,429104,0,1191 /
&OBST XB= 406512,457326,429104,482742,0,1191 /
&OBST XB= 406512,457326,429104,482742,0,1191 /
&OBST XB= 406512,457326,429104,482742,0,1191 /
&OBST XB= 406512,457326,429104,482742,0,1191 /
&OBST XB= 406512,457326,429104,482742,0,1191 /
&OBST XB= 406512,457326,429104,482742,0,1191 /
&OBST XB= 406512,457326,429104,482742,0,1191 /
&OBST XB= 406512,457326,429104,482742,0,1191 /
&OBST XB= 406512,457326,429104,482742,0,1191 /
&OBST XB= 406512,457326,429104,482742,0,1191 /
&OBST XB= 406512,457326,429104,482742,0,1191 /
&OBST XB= 406512,457326,429104,482742,0,1191 /
&OBST XB= 406512,457326,429104,482742,0,1191 /
&OBST XB= 406512,457326,429104,482742,0,1191 /
&OBST XB= 406512,457326,429104,482742,0,1191 /
&OBST XB= 406512,457326,429104,482742,0,1191 /
&OBST XB= 406512,457326,429104,482742,0,1191 /
&OBST XB= 406512,457326,429104,482742,0,1191 /
&OBST XB= 406512,457326,429104,482742,0,1191 /
&OBST XB= 457326,508140,482742,536380,0,1190 /
&OBST XB= 457326,508140,482742,536380,0,1191 /
&OBST XB= 457326,508140,482742,536380,0,1191 /
&OBST XB= 457326,508140,482742,536380,0,1191 /
&OBST XB= 457326,508140,482742,536380,0,1191 /
&OBST XB= 457326,508140,482742,536380,0,1191 /
&OBST XB= 457326,508140,482742,536380,0,1191 /
&OBST XB= 457326,508140,482742,536380,0,1191 /
&OBST XB= 457326,508140,482742,536380,0,1191 /
&OBST XB= 457326,508140,482742,536380,0,1191 /
&OBST XB= 457326,508140,482742,536380,0,1191 /
&OBST XB= 457326,508140,482742,536380,0,1191 /
&OBST XB= 457326,508140,482742,536380,0,1191 /
&OBST XB= 457326,508140,482742,536380,0,1191 /
&OBST XB= 457326,508140,482742,536380,0,1191 /
&OBST XB= 457326,508140,482742,536380,0,1191 /
&OBST XB= 457326,508140,482742,536380,0,1191 /
&OBST XB= 457326,508140,482742,536380,0,1191 /
&OBST XB= 457326,508140,482742,536380,0,1191 /
&OBST XB= 508140,558954,536380,590018,0,1191 /
&OBST XB= 508140,558954,536380,590018,0,1191 /
&OBST XB= 508140,558954,536380,590018,0,1191 /
&OBST XB= 508140,558954,536380,590018,0,1191 /
&OBST XB= 508140,558954,536380,590018,0,1191 /
&OBST XB= 508140,558954,536380,590018,0,1191 /
&OBST XB= 508140,558954,536380,590018,0,1191 /
&OBST XB= 508140,558954,536380,590018,0,1191 /
&OBST XB= 508140,558954,536380,590018,0,1191 /
&OBST XB= 508140,558954,536380,590018,0,1191 /
&OBST XB= 508140,558954,536380,590018,0,1191 /
&OBST XB= 508140,558954,536380,590018,0,1191 /
&OBST XB= 508140,558954,536380,590018,0,1191 /
&OBST XB= 508140,558954,536380,590018,0,1191 /
&OBST XB= 508140,558954,536380,590018,0,1191 /
&OBST XB= 508140,558954,536380,590018,0,1191 /
&OBST XB= 508140,558954,536380,590018,0,1191 /
&OBST XB= 508140,558954,536380,590018,0,1191 /
&OBST XB= 508140,558954,536380,590018,0,1191 /
&OBST XB= 558954,609768,590018,643656,0,1191 /
&OBST XB= 558954,609768,590018,643656,0,1191 /
&OBST XB= 558954,609768,590018,643656,0,1191 /
&OBST XB= 558954,609768,590018,643656,0,1191 /
&OBST XB= 558954,609768,590018,643656,0,1191 /
&OBST XB= 558954,609768,590018,643656,0,1191 /
&OBST XB= 558954,609768,590018,643656,0,1191 /
&OBST XB= 558954,609768,590018,643656,0,1191 /
&OBST XB= 558954,609768,590018,643656,0,1191 /
&OBST XB= 558954,609768,590018,643656,0,1191 /
&OBST XB= 558954,609768,590018,643656,0,1191 /
&OBST XB= 558954,609768,590018,643656,0,1191 /
&OBST XB= 558954,609768,590018,643656,0,1191 /
&OBST XB= 558954,609768,590018,643656,0,1191 /
&OBST XB= 558954,609768,590018,643656,0,1191 /
&OBST XB= 558954,609768,590018,643656,0,1191 /
&OBST XB= 558954,609768,590018,643656,0,1192 /
&OBST XB= 558954,609768,590018,643656,0,1192 /
&OBST XB= 558954,609768,590018,643656,0,1192 /
&OBST XB= 609768,660582,643656,697294,0,1191 /
&OBST XB= 609768,660582,643656,697294,0,1191 /
&OBST XB= 609768,660582,643656,697294,0,1191 /
&OBST XB= 609768,660582,643656,697294,0,1191 /
&OBST XB= 609768,660582,643656,697294,0,1191 /
&OBST XB= 609768,660582,643656,697294,0,1191 /
&OBST XB= 609768,660582,643656,697294,0,1191 /
&OBST XB= 609768,660582,643656,697294,0,1191 /
&OBST XB= 609768,660582,643656,697294,0,1191 /
&OBST XB= 609768,660582,643656,697294,0,1191 /
&OBST XB= 609768,660582,643656,697294,0,1191 /
&OBST XB= 609768,660582,643656,697294,0,1191 /
&OBST XB= 609768,660582,643656,697294,0,1191 /
&OBST XB= 609768,660582,643656,697294,0,1191 /
&OBST XB= 609768,660582,643656,697294,0,1191 /
&OBST XB= 609768,660582,643656,697294,0,1191 /
&OBST XB= 609768,660582,643656,697294,0,1192 /
&OBST XB= 609768,660582,643656,697294,0,1192 /
&OBST XB= 609768,660582,643656,697294,0,1192 /
&OBST XB= 660582,711396,697294,750932,0,1191 /
&OBST XB= 660582,711396,697294,750932,0,1191 /
&OBST XB= 660582,711396,697294,750932,0,1191 /
&OBST XB= 660582,711396,697294,750932,0,1191 /
&OBST XB= 660582,711396,697294,750932,0,1191 /
&OBST XB= 660582,711396,697294,750932,0,1191 /
&OBST XB= 660582,711396,697294,750932,0,1191 /
&OBST XB= 660582,711396,697294,750932,0,1191 /
&OBST XB= 660582,711396,697294,750932,0,1191 /
&OBST XB= 660582,711396,697294,750932,0,1191 /
&OBST XB= 660582,711396,697294,750932,0,1191 /
&OBST XB= 660582,711396,697294,750932,0,1191 /
&OBST XB= 660582,711396,697294,750932,0,1191 /
&OBST XB= 660582,711396,697294,750932,0,1191 /
&OBST XB= 660582,711396,697294,750932,0,1192 /
&OBST XB= 660582,711396,697294,750932,0,1192 /
&OBST XB= 660582,711396,697294,750932,0,1192 /
&OBST XB= 660582,711396,697294,750932,0,1192 /
&OBST XB= 660582,711396,697294,750932,0,1192 /
&OBST XB= 711396,762210,750932,804570,0,1190 /
&OBST XB= 711396,762210,750932,804570,0,1191 /
&OBST XB= 711396,762210,750932,804570,0,1191 /
&OBST XB= 711396,762210,750932,804570,0,1191 /
&OBST XB= 711396,762210,750932,804570,0,1191 /
&OBST XB= 711396,762210,750932,804570,0,1191 /
&OBST XB= 711396,762210,750932,804570,0,1191 /
&OBST XB= 711396,762210,750932,804570,0,1191 /
&OBST XB= 711396,762210,750932,804570,0,1191 /
&OBST XB= 711396,762210,750932,804570,0,1191 /
&OBST XB= 711396,762210,750932,804570,0,1191 /
&OBST XB= 711396,762210,750932,804570,0,1191 /
&OBST XB= 711396,762210,750932,804570,0,1191 /
&OBST XB= 711396,762210,750932,804570,0,1192 /
&OBST XB= 711396,762210,750932,804570,0,1192 /
&OBST XB= 711396,762210,750932,804570,0,1192 /
&OBST XB= 711396,762210,750932,804570,0,1192 /
&OBST XB= 711396,762210,750932,804570,0,1192 /
&OBST XB= 711396,762210,750932,804570,0,1192 /
&OBST XB= 762210,813024,804570,858208,0,1190 /
&OBST XB= 762210,813024,804570,858208,0,1191 /
&OBST XB= 762210,813024,804570,858208,0,1191 /
&OBST XB= 762210,813024,804570,858208,0,1191 /
&OBST XB= 762210,813024,804570,858208,0,1191 /
&OBST XB= 762210,813024,804570,858208,0,1191 /
&OBST XB= 762210,813024,804570,858208,0,1191 /
&OBST XB= 762210,813024,804570,858208,0,1191 /
&OBST XB= 762210,813024,804570,858208,0,1191 /
&OBST XB= 762210,813024,804570,858208,0,1191 /
&OBST XB= 762210,813024,804570,858208,0,1191 /
&OBST XB= 762210,813024,804570,858208,0,1191 /
&OBST XB= 762210,813024,804570,858208,0,1192 /
&OBST XB= 762210,813024,804570,858208,0,1192 /
&OBST XB= 762210,813024,804570,858208,0,1192 /
&OBST XB= 762210,813024,804570,858208,0,1192 /
&OBST XB= 762210,813024,804570,858208,0,1192 /
&OBST XB= 762210,813024,804570,858208,0,1192 /
&OBST XB= 762210,813024,804570,858208,0,1192 /
&OBST XB= 813024,863838,858208,911846,0,1188 /
&OBST XB= 813024,863838,858208,911846,0,1190 /
&OBST XB= 813024,863838,858208,911846,0,1191 /
&OBST XB= 813024,863838,858208,911846,0,1191 /
&OBST XB= 813024,863838,858208,911846,0,1191 /
&OBST XB= 813024,863838,858208,911846,0,1191 /
&OBST XB= 813024,863838,858208,911846,0,1191 /
&OBST XB= 813024,863838,858208,911846,0,1191 /
&OBST XB= 813024,863838,858208,911846,0,1191 /
&OBST XB= 813024,863838,858208,911846,0,1191 /
&OBST XB= 813024,863838,858208,911846,0,1191 /
&OBST XB= 813024,863838,858208,911846,0,1192 /
&OBST XB= 813024,863838,858208,911846,0,1192 /
&OBST XB= 813024,863838,858208,911846,0,1192 /
&OBST XB= 813024,863838,858208,911846,0,1192 /
&OBST XB= 813024,863838,858208,911846,0,1192 /
&OBST XB= 813024,863838,858208,911846,0,1192 /
&OBST XB= 813024,863838,858208,911846,0,1193 /
&OBST XB= 813024,863838,858208,911846,0,1192 /
&OBST XB= 863838,914652,911846,965484,0,1188 /
&OBST XB= 863838,914652,911846,965484,0,1190 /
&OBST XB= 863838,914652,911846,965484,0,1191 /
&OBST XB= 863838,914652,911846,965484,0,1191 /
&OBST XB= 863838,914652,911846,965484,0,1191 /
&OBST XB= 863838,914652,911846,965484,0,1191 /
&OBST XB= 863838,914652,911846,965484,0,1191 /
&OBST XB= 863838,914652,911846,965484,0,1191 /
&OBST XB= 863838,914652,911846,965484,0,1191 /
&OBST XB= 863838,914652,911846,965484,0,1191 /
&OBST XB= 863838,914652,911846,965484,0,1191 /
&OBST XB= 863838,914652,911846,965484,0,1192 /
&OBST XB= 863838,914652,911846,965484,0,1192 /
&OBST XB= 863838,914652,911846,965484,0,1192 /
&OBST XB= 863838,914652,911846,965484,0,1192 /
&OBST XB= 863838,914652,911846,965484,0,1192 /
&OBST XB= 863838,914652,911846,965484,0,1193 /
&OBST XB= 863838,914652,911846,965484,0,1193 /
&OBST XB= 863838,914652,911846,965484,0,1192 /

&TAIL /