&HEAD  CHID='BRCBig', Title='This is the Title ' / 

&TIME T_END=1.0 /

&DUMP WRITE_XYZ=.TRUE., DT_PL3D=0.1 /

&MESH IJK=263,269,1515,XB=0,969144,0,969030,0,2687/

&OBST XB= 0,3671,0,3589,0,1749 /
&OBST XB= 0,3671,0,3589,0,1762 /
&OBST XB= 0,3671,0,3589,0,1748 /
&OBST XB= 0,3671,0,3589,0,1747 /
&OBST XB= 0,3671,0,3589,0,1725 /
&OBST XB= 0,3671,0,3589,0,1767 /
&OBST XB= 0,3671,0,3589,0,1762 /
&OBST XB= 0,3671,0,3589,0,1763 /
&OBST XB= 0,3671,0,3589,0,1715 /
&OBST XB= 0,3671,0,3589,0,1827 /
&OBST XB= 0,3671,0,3589,0,1837 /
&OBST XB= 0,3671,0,3589,0,1836 /
&OBST XB= 0,3671,0,3589,0,1819 /
&OBST XB= 0,3671,0,3589,0,1808 /
&OBST XB= 0,3671,0,3589,0,1790 /
&OBST XB= 0,3671,0,3589,0,1803 /
&OBST XB= 0,3671,0,3589,0,1820 /
&OBST XB= 0,3671,0,3589,0,1821 /
&OBST XB= 0,3671,0,3589,0,1822 /
&OBST XB= 0,3671,0,3589,0,1846 /
&OBST XB= 0,3671,0,3589,0,1869 /
&OBST XB= 0,3671,0,3589,0,1873 /
&OBST XB= 0,3671,0,3589,0,1887 /
&OBST XB= 0,3671,0,3589,0,1903 /
&OBST XB= 0,3671,0,3589,0,1914 /
&OBST XB= 0,3671,0,3589,0,1913 /
&OBST XB= 0,3671,0,3589,0,1970 /
&OBST XB= 0,3671,0,3589,0,1993 /
&OBST XB= 0,3671,0,3589,0,1966 /
&OBST XB= 0,3671,0,3589,0,1967 /
&OBST XB= 0,3671,0,3589,0,1974 /
&OBST XB= 0,3671,0,3589,0,1963 /
&OBST XB= 0,3671,0,3589,0,1976 /
&OBST XB= 0,3671,0,3589,0,1907 /
&OBST XB= 0,3671,0,3589,0,1902 /
&OBST XB= 0,3671,0,3589,0,1893 /
&OBST XB= 0,3671,0,3589,0,1883 /
&OBST XB= 0,3671,0,3589,0,1814 /
&OBST XB= 0,3671,0,3589,0,1800 /
&OBST XB= 0,3671,0,3589,0,1777 /
&OBST XB= 0,3671,0,3589,0,1736 /
&OBST XB= 0,3671,0,3589,0,1760 /
&OBST XB= 0,3671,0,3589,0,1757 /
&OBST XB= 0,3671,0,3589,0,1717 /
&OBST XB= 0,3671,0,3589,0,1697 /
&OBST XB= 0,3671,0,3589,0,1692 /
&OBST XB= 0,3671,0,3589,0,1683 /
&OBST XB= 0,3671,0,3589,0,1691 /
&OBST XB= 0,3671,0,3589,0,1684 /
&OBST XB= 0,3671,0,3589,0,1679 /
&OBST XB= 0,3671,0,3589,0,1657 /
&OBST XB= 0,3671,0,3589,0,1653 /
&OBST XB= 0,3671,0,3589,0,1647 /
&OBST XB= 0,3671,0,3589,0,1648 /
&OBST XB= 0,3671,0,3589,0,1643 /
&OBST XB= 0,3671,0,3589,0,1641 /
&OBST XB= 0,3671,0,3589,0,1649 /
&OBST XB= 0,3671,0,3589,0,1641 /
&OBST XB= 0,3671,0,3589,0,1647 /
&OBST XB= 0,3671,0,3589,0,1628 /
&OBST XB= 0,3671,0,3589,0,1650 /
&OBST XB= 0,3671,0,3589,0,1649 /
&OBST XB= 0,3671,0,3589,0,1645 /
&OBST XB= 0,3671,0,3589,0,1629 /
&OBST XB= 0,3671,0,3589,0,1625 /
&OBST XB= 0,3671,0,3589,0,1617 /
&OBST XB= 0,3671,0,3589,0,1621 /
&OBST XB= 0,3671,0,3589,0,1616 /
&OBST XB= 0,3671,0,3589,0,1616 /
&OBST XB= 0,3671,0,3589,0,1616 /
&OBST XB= 0,3671,0,3589,0,1635 /
&OBST XB= 0,3671,0,3589,0,1635 /
&OBST XB= 0,3671,0,3589,0,1629 /
&OBST XB= 0,3671,0,3589,0,1637 /
&OBST XB= 0,3671,0,3589,0,1630 /
&OBST XB= 0,3671,0,3589,0,1634 /
&OBST XB= 0,3671,0,3589,0,1653 /
&OBST XB= 0,3671,0,3589,0,1668 /
&OBST XB= 0,3671,0,3589,0,1667 /
&OBST XB= 0,3671,0,3589,0,1640 /
&OBST XB= 0,3671,0,3589,0,1707 /
&OBST XB= 0,3671,0,3589,0,1760 /
&OBST XB= 0,3671,0,3589,0,1788 /
&OBST XB= 0,3671,0,3589,0,1808 /
&OBST XB= 0,3671,0,3589,0,1871 /
&OBST XB= 0,3671,0,3589,0,1908 /
&OBST XB= 0,3671,0,3589,0,1902 /
&OBST XB= 0,3671,0,3589,0,1889 /
&OBST XB= 0,3671,0,3589,0,1859 /
&OBST XB= 0,3671,0,3589,0,1841 /
&OBST XB= 0,3671,0,3589,0,1836 /
&OBST XB= 0,3671,0,3589,0,1835 /
&OBST XB= 0,3671,0,3589,0,1773 /
&OBST XB= 0,3671,0,3589,0,1769 /
&OBST XB= 0,3671,0,3589,0,1794 /
&OBST XB= 0,3671,0,3589,0,1787 /
&OBST XB= 0,3671,0,3589,0,1811 /
&OBST XB= 0,3671,0,3589,0,1813 /
&OBST XB= 0,3671,0,3589,0,1849 /
&OBST XB= 0,3671,0,3589,0,1782 /
&OBST XB= 0,3671,0,3589,0,1755 /
&OBST XB= 0,3671,0,3589,0,1684 /
&OBST XB= 0,3671,0,3589,0,1627 /
&OBST XB= 0,3671,0,3589,0,1608 /
&OBST XB= 0,3671,0,3589,0,1570 /
&OBST XB= 0,3671,0,3589,0,1551 /
&OBST XB= 0,3671,0,3589,0,1542 /
&OBST XB= 0,3671,0,3589,0,1527 /
&OBST XB= 0,3671,0,3589,0,1527 /
&OBST XB= 0,3671,0,3589,0,1535 /
&OBST XB= 0,3671,0,3589,0,1553 /
&OBST XB= 0,3671,0,3589,0,1610 /
&OBST XB= 0,3671,0,3589,0,1625 /
&OBST XB= 0,3671,0,3589,0,1611 /
&OBST XB= 0,3671,0,3589,0,1636 /
&OBST XB= 0,3671,0,3589,0,1648 /
&OBST XB= 0,3671,0,3589,0,1672 /
&OBST XB= 0,3671,0,3589,0,1691 /
&OBST XB= 0,3671,0,3589,0,1730 /
&OBST XB= 0,3671,0,3589,0,1768 /
&OBST XB= 0,3671,0,3589,0,1934 /
&OBST XB= 0,3671,0,3589,0,1982 /
&OBST XB= 0,3671,0,3589,0,1909 /
&OBST XB= 0,3671,0,3589,0,1852 /
&OBST XB= 0,3671,0,3589,0,1808 /
&OBST XB= 0,3671,0,3589,0,1819 /
&OBST XB= 0,3671,0,3589,0,1755 /
&OBST XB= 0,3671,0,3589,0,1828 /
&OBST XB= 0,3671,0,3589,0,1812 /
&OBST XB= 0,3671,0,3589,0,1786 /
&OBST XB= 0,3671,0,3589,0,1811 /
&OBST XB= 0,3671,0,3589,0,1672 /
&OBST XB= 0,3671,0,3589,0,1613 /
&OBST XB= 0,3671,0,3589,0,1547 /
&OBST XB= 0,3671,0,3589,0,1535 /
&OBST XB= 0,3671,0,3589,0,1560 /
&OBST XB= 0,3671,0,3589,0,1467 /
&OBST XB= 0,3671,0,3589,0,1431 /
&OBST XB= 0,3671,0,3589,0,1369 /
&OBST XB= 0,3671,0,3589,0,1381 /
&OBST XB= 0,3671,0,3589,0,1346 /
&OBST XB= 0,3671,0,3589,0,1339 /
&OBST XB= 0,3671,0,3589,0,1278 /
&OBST XB= 0,3671,0,3589,0,1263 /
&OBST XB= 0,3671,0,3589,0,1255 /
&OBST XB= 0,3671,0,3589,0,1248 /
&OBST XB= 0,3671,0,3589,0,1249 /
&OBST XB= 0,3671,0,3589,0,1266 /
&OBST XB= 0,3671,0,3589,0,1269 /
&OBST XB= 0,3671,0,3589,0,1266 /
&OBST XB= 0,3671,0,3589,0,1265 /
&OBST XB= 0,3671,0,3589,0,1267 /
&OBST XB= 0,3671,0,3589,0,1266 /
&OBST XB= 0,3671,0,3589,0,1268 /
&OBST XB= 0,3671,0,3589,0,1271 /
&OBST XB= 0,3671,0,3589,0,1280 /
&OBST XB= 0,3671,0,3589,0,1278 /
&OBST XB= 0,3671,0,3589,0,1281 /
&OBST XB= 0,3671,0,3589,0,1285 /
&OBST XB= 0,3671,0,3589,0,1283 /
&OBST XB= 0,3671,0,3589,0,1336 /
&OBST XB= 0,3671,0,3589,0,1388 /
&OBST XB= 0,3671,0,3589,0,1354 /
&OBST XB= 0,3671,0,3589,0,1391 /
&OBST XB= 0,3671,0,3589,0,1372 /
&OBST XB= 0,3671,0,3589,0,1375 /
&OBST XB= 0,3671,0,3589,0,1453 /
&OBST XB= 0,3671,0,3589,0,1438 /
&OBST XB= 0,3671,0,3589,0,1476 /
&OBST XB= 0,3671,0,3589,0,1468 /
&OBST XB= 0,3671,0,3589,0,1472 /
&OBST XB= 0,3671,0,3589,0,1531 /
&OBST XB= 0,3671,0,3589,0,1576 /
&OBST XB= 0,3671,0,3589,0,1638 /
&OBST XB= 0,3671,0,3589,0,1637 /
&OBST XB= 0,3671,0,3589,0,1568 /
&OBST XB= 0,3671,0,3589,0,1528 /
&OBST XB= 0,3671,0,3589,0,1474 /
&OBST XB= 0,3671,0,3589,0,1492 /
&OBST XB= 0,3671,0,3589,0,1452 /
&OBST XB= 0,3671,0,3589,0,1440 /
&OBST XB= 0,3671,0,3589,0,1459 /
&OBST XB= 0,3671,0,3589,0,1431 /
&OBST XB= 0,3671,0,3589,0,1402 /
&OBST XB= 0,3671,0,3589,0,1392 /
&OBST XB= 0,3671,0,3589,0,1375 /
&OBST XB= 0,3671,0,3589,0,1359 /
&OBST XB= 0,3671,0,3589,0,1350 /
&OBST XB= 0,3671,0,3589,0,1330 /
&OBST XB= 0,3671,0,3589,0,1317 /
&OBST XB= 0,3671,0,3589,0,1309 /
&OBST XB= 0,3671,0,3589,0,1304 /
&OBST XB= 0,3671,0,3589,0,1297 /
&OBST XB= 0,3671,0,3589,0,1269 /
&OBST XB= 0,3671,0,3589,0,1249 /
&OBST XB= 0,3671,0,3589,0,1240 /
&OBST XB= 0,3671,0,3589,0,1232 /
&OBST XB= 0,3671,0,3589,0,1229 /
&OBST XB= 0,3671,0,3589,0,1225 /
&OBST XB= 0,3671,0,3589,0,1222 /
&OBST XB= 0,3671,0,3589,0,1220 /
&OBST XB= 0,3671,0,3589,0,1220 /
&OBST XB= 0,3671,0,3589,0,1219 /
&OBST XB= 0,3671,0,3589,0,1218 /
&OBST XB= 0,3671,0,3589,0,1218 /
&OBST XB= 0,3671,0,3589,0,1217 /
&OBST XB= 0,3671,0,3589,0,1217 /
&OBST XB= 0,3671,0,3589,0,1215 /
&OBST XB= 0,3671,0,3589,0,1214 /
&OBST XB= 0,3671,0,3589,0,1214 /
&OBST XB= 0,3671,0,3589,0,1213 /
&OBST XB= 0,3671,0,3589,0,1213 /
&OBST XB= 0,3671,0,3589,0,1214 /
&OBST XB= 0,3671,0,3589,0,1214 /
&OBST XB= 0,3671,0,3589,0,1213 /
&OBST XB= 0,3671,0,3589,0,1213 /
&OBST XB= 0,3671,0,3589,0,1211 /
&OBST XB= 0,3671,0,3589,0,1210 /
&OBST XB= 0,3671,0,3589,0,1211 /
&OBST XB= 0,3671,0,3589,0,1211 /
&OBST XB= 0,3671,0,3589,0,1211 /
&OBST XB= 0,3671,0,3589,0,1211 /
&OBST XB= 0,3671,0,3589,0,1209 /
&OBST XB= 0,3671,0,3589,0,1208 /
&OBST XB= 0,3671,0,3589,0,1209 /
&OBST XB= 0,3671,0,3589,0,1208 /
&OBST XB= 0,3671,0,3589,0,1210 /
&OBST XB= 0,3671,0,3589,0,1211 /
&OBST XB= 0,3671,0,3589,0,1211 /
&OBST XB= 0,3671,0,3589,0,1211 /
&OBST XB= 0,3671,0,3589,0,1209 /
&OBST XB= 0,3671,0,3589,0,1210 /
&OBST XB= 0,3671,0,3589,0,1210 /
&OBST XB= 0,3671,0,3589,0,1208 /
&OBST XB= 0,3671,0,3589,0,1208 /
&OBST XB= 0,3671,0,3589,0,1208 /
&OBST XB= 0,3671,0,3589,0,1208 /
&OBST XB= 0,3671,0,3589,0,1206 /
&OBST XB= 0,3671,0,3589,0,1207 /
&OBST XB= 0,3671,0,3589,0,1207 /
&OBST XB= 0,3671,0,3589,0,1208 /
&OBST XB= 0,3671,0,3589,0,1209 /
&OBST XB= 0,3671,0,3589,0,1209 /
&OBST XB= 0,3671,0,3589,0,1209 /
&OBST XB= 0,3671,0,3589,0,1210 /
&OBST XB= 0,3671,0,3589,0,1210 /
&OBST XB= 0,3671,0,3589,0,1210 /
&OBST XB= 0,3671,0,3589,0,1209 /
&OBST XB= 0,3671,0,3589,0,1209 /
&OBST XB= 0,3671,0,3589,0,1210 /
&OBST XB= 0,3671,0,3589,0,1210 /
&OBST XB= 0,3671,0,3589,0,1210 /
&OBST XB= 0,3671,0,3589,0,1209 /
&OBST XB= 0,3671,0,3589,0,1209 /
&OBST XB= 0,3671,0,3589,0,1210 /
&OBST XB= 0,3671,0,3589,0,1210 /
&OBST XB= 0,3671,0,3589,0,1210 /
&OBST XB= 0,3671,0,3589,0,1208 /
&OBST XB= 0,3671,0,3589,0,1209 /
&OBST XB= 0,3671,0,3589,0,1210 /
&OBST XB= 0,3671,0,3589,0,1213 /
&OBST XB= 0,3671,0,3589,0,1215 /
&OBST XB= 0,3671,0,3589,0,1216 /
&OBST XB= 3671,7342,3589,7178,0,1733 /
&OBST XB= 3671,7342,3589,7178,0,1721 /
&OBST XB= 3671,7342,3589,7178,0,1738 /
&OBST XB= 3671,7342,3589,7178,0,1739 /
&OBST XB= 3671,7342,3589,7178,0,1697 /
&OBST XB= 3671,7342,3589,7178,0,1746 /
&OBST XB= 3671,7342,3589,7178,0,1723 /
&OBST XB= 3671,7342,3589,7178,0,1709 /
&OBST XB= 3671,7342,3589,7178,0,1782 /
&OBST XB= 3671,7342,3589,7178,0,1810 /
&OBST XB= 3671,7342,3589,7178,0,1810 /
&OBST XB= 3671,7342,3589,7178,0,1783 /
&OBST XB= 3671,7342,3589,7178,0,1775 /
&OBST XB= 3671,7342,3589,7178,0,1769 /
&OBST XB= 3671,7342,3589,7178,0,1783 /
&OBST XB= 3671,7342,3589,7178,0,1807 /
&OBST XB= 3671,7342,3589,7178,0,1832 /
&OBST XB= 3671,7342,3589,7178,0,1849 /
&OBST XB= 3671,7342,3589,7178,0,1863 /
&OBST XB= 3671,7342,3589,7178,0,1856 /
&OBST XB= 3671,7342,3589,7178,0,1883 /
&OBST XB= 3671,7342,3589,7178,0,1892 /
&OBST XB= 3671,7342,3589,7178,0,1922 /
&OBST XB= 3671,7342,3589,7178,0,1920 /
&OBST XB= 3671,7342,3589,7178,0,1940 /
&OBST XB= 3671,7342,3589,7178,0,1948 /
&OBST XB= 3671,7342,3589,7178,0,1950 /
&OBST XB= 3671,7342,3589,7178,0,1968 /
&OBST XB= 3671,7342,3589,7178,0,1978 /
&OBST XB= 3671,7342,3589,7178,0,1989 /
&OBST XB= 3671,7342,3589,7178,0,1940 /
&OBST XB= 3671,7342,3589,7178,0,1923 /
&OBST XB= 3671,7342,3589,7178,0,1883 /
&OBST XB= 3671,7342,3589,7178,0,1916 /
&OBST XB= 3671,7342,3589,7178,0,1903 /
&OBST XB= 3671,7342,3589,7178,0,1924 /
&OBST XB= 3671,7342,3589,7178,0,1877 /
&OBST XB= 3671,7342,3589,7178,0,1839 /
&OBST XB= 3671,7342,3589,7178,0,1784 /
&OBST XB= 3671,7342,3589,7178,0,1753 /
&OBST XB= 3671,7342,3589,7178,0,1750 /
&OBST XB= 3671,7342,3589,7178,0,1725 /
&OBST XB= 3671,7342,3589,7178,0,1728 /
&OBST XB= 3671,7342,3589,7178,0,1701 /
&OBST XB= 3671,7342,3589,7178,0,1692 /
&OBST XB= 3671,7342,3589,7178,0,1685 /
&OBST XB= 3671,7342,3589,7178,0,1678 /
&OBST XB= 3671,7342,3589,7178,0,1671 /
&OBST XB= 3671,7342,3589,7178,0,1678 /
&OBST XB= 3671,7342,3589,7178,0,1667 /
&OBST XB= 3671,7342,3589,7178,0,1655 /
&OBST XB= 3671,7342,3589,7178,0,1655 /
&OBST XB= 3671,7342,3589,7178,0,1655 /
&OBST XB= 3671,7342,3589,7178,0,1653 /
&OBST XB= 3671,7342,3589,7178,0,1655 /
&OBST XB= 3671,7342,3589,7178,0,1654 /
&OBST XB= 3671,7342,3589,7178,0,1651 /
&OBST XB= 3671,7342,3589,7178,0,1649 /
&OBST XB= 3671,7342,3589,7178,0,1645 /
&OBST XB= 3671,7342,3589,7178,0,1646 /
&OBST XB= 3671,7342,3589,7178,0,1642 /
&OBST XB= 3671,7342,3589,7178,0,1642 /
&OBST XB= 3671,7342,3589,7178,0,1635 /
&OBST XB= 3671,7342,3589,7178,0,1627 /
&OBST XB= 3671,7342,3589,7178,0,1626 /
&OBST XB= 3671,7342,3589,7178,0,1621 /
&OBST XB= 3671,7342,3589,7178,0,1618 /
&OBST XB= 3671,7342,3589,7178,0,1617 /
&OBST XB= 3671,7342,3589,7178,0,1616 /
&OBST XB= 3671,7342,3589,7178,0,1643 /
&OBST XB= 3671,7342,3589,7178,0,1642 /
&OBST XB= 3671,7342,3589,7178,0,1642 /
&OBST XB= 3671,7342,3589,7178,0,1628 /
&OBST XB= 3671,7342,3589,7178,0,1640 /
&OBST XB= 3671,7342,3589,7178,0,1635 /
&OBST XB= 3671,7342,3589,7178,0,1654 /
&OBST XB= 3671,7342,3589,7178,0,1686 /
&OBST XB= 3671,7342,3589,7178,0,1685 /
&OBST XB= 3671,7342,3589,7178,0,1680 /
&OBST XB= 3671,7342,3589,7178,0,1660 /
&OBST XB= 3671,7342,3589,7178,0,1753 /
&OBST XB= 3671,7342,3589,7178,0,1776 /
&OBST XB= 3671,7342,3589,7178,0,1780 /
&OBST XB= 3671,7342,3589,7178,0,1828 /
&OBST XB= 3671,7342,3589,7178,0,1885 /
&OBST XB= 3671,7342,3589,7178,0,1927 /
&OBST XB= 3671,7342,3589,7178,0,1929 /
&OBST XB= 3671,7342,3589,7178,0,1899 /
&OBST XB= 3671,7342,3589,7178,0,1886 /
&OBST XB= 3671,7342,3589,7178,0,1842 /
&OBST XB= 3671,7342,3589,7178,0,1865 /
&OBST XB= 3671,7342,3589,7178,0,1848 /
&OBST XB= 3671,7342,3589,7178,0,1804 /
&OBST XB= 3671,7342,3589,7178,0,1815 /
&OBST XB= 3671,7342,3589,7178,0,1819 /
&OBST XB= 3671,7342,3589,7178,0,1821 /
&OBST XB= 3671,7342,3589,7178,0,1822 /
&OBST XB= 3671,7342,3589,7178,0,1845 /
&OBST XB= 3671,7342,3589,7178,0,1910 /
&OBST XB= 3671,7342,3589,7178,0,1879 /
&OBST XB= 3671,7342,3589,7178,0,1762 /
&OBST XB= 3671,7342,3589,7178,0,1668 /
&OBST XB= 3671,7342,3589,7178,0,1615 /
&OBST XB= 3671,7342,3589,7178,0,1596 /
&OBST XB= 3671,7342,3589,7178,0,1566 /
&OBST XB= 3671,7342,3589,7178,0,1546 /
&OBST XB= 3671,7342,3589,7178,0,1529 /
&OBST XB= 3671,7342,3589,7178,0,1580 /
&OBST XB= 3671,7342,3589,7178,0,1592 /
&OBST XB= 3671,7342,3589,7178,0,1571 /
&OBST XB= 3671,7342,3589,7178,0,1579 /
&OBST XB= 3671,7342,3589,7178,0,1647 /
&OBST XB= 3671,7342,3589,7178,0,1627 /
&OBST XB= 3671,7342,3589,7178,0,1628 /
&OBST XB= 3671,7342,3589,7178,0,1635 /
&OBST XB= 3671,7342,3589,7178,0,1644 /
&OBST XB= 3671,7342,3589,7178,0,1667 /
&OBST XB= 3671,7342,3589,7178,0,1699 /
&OBST XB= 3671,7342,3589,7178,0,1770 /
&OBST XB= 3671,7342,3589,7178,0,1791 /
&OBST XB= 3671,7342,3589,7178,0,1859 /
&OBST XB= 3671,7342,3589,7178,0,1960 /
&OBST XB= 3671,7342,3589,7178,0,1953 /
&OBST XB= 3671,7342,3589,7178,0,1895 /
&OBST XB= 3671,7342,3589,7178,0,1874 /
&OBST XB= 3671,7342,3589,7178,0,1822 /
&OBST XB= 3671,7342,3589,7178,0,1786 /
&OBST XB= 3671,7342,3589,7178,0,1848 /
&OBST XB= 3671,7342,3589,7178,0,1774 /
&OBST XB= 3671,7342,3589,7178,0,1708 /
&OBST XB= 3671,7342,3589,7178,0,1733 /
&OBST XB= 3671,7342,3589,7178,0,1721 /
&OBST XB= 3671,7342,3589,7178,0,1608 /
&OBST XB= 3671,7342,3589,7178,0,1607 /
&OBST XB= 3671,7342,3589,7178,0,1588 /
&OBST XB= 3671,7342,3589,7178,0,1530 /
&OBST XB= 3671,7342,3589,7178,0,1494 /
&OBST XB= 3671,7342,3589,7178,0,1465 /
&OBST XB= 3671,7342,3589,7178,0,1441 /
&OBST XB= 3671,7342,3589,7178,0,1388 /
&OBST XB= 3671,7342,3589,7178,0,1352 /
&OBST XB= 3671,7342,3589,7178,0,1294 /
&OBST XB= 3671,7342,3589,7178,0,1282 /
&OBST XB= 3671,7342,3589,7178,0,1269 /
&OBST XB= 3671,7342,3589,7178,0,1257 /
&OBST XB= 3671,7342,3589,7178,0,1248 /
&OBST XB= 3671,7342,3589,7178,0,1252 /
&OBST XB= 3671,7342,3589,7178,0,1267 /
&OBST XB= 3671,7342,3589,7178,0,1263 /
&OBST XB= 3671,7342,3589,7178,0,1263 /
&OBST XB= 3671,7342,3589,7178,0,1264 /
&OBST XB= 3671,7342,3589,7178,0,1264 /
&OBST XB= 3671,7342,3589,7178,0,1263 /
&OBST XB= 3671,7342,3589,7178,0,1263 /
&OBST XB= 3671,7342,3589,7178,0,1267 /
&OBST XB= 3671,7342,3589,7178,0,1266 /
&OBST XB= 3671,7342,3589,7178,0,1271 /
&OBST XB= 3671,7342,3589,7178,0,1273 /
&OBST XB= 3671,7342,3589,7178,0,1268 /
&OBST XB= 3671,7342,3589,7178,0,1272 /
&OBST XB= 3671,7342,3589,7178,0,1283 /
&OBST XB= 3671,7342,3589,7178,0,1311 /
&OBST XB= 3671,7342,3589,7178,0,1327 /
&OBST XB= 3671,7342,3589,7178,0,1361 /
&OBST XB= 3671,7342,3589,7178,0,1351 /
&OBST XB= 3671,7342,3589,7178,0,1340 /
&OBST XB= 3671,7342,3589,7178,0,1375 /
&OBST XB= 3671,7342,3589,7178,0,1394 /
&OBST XB= 3671,7342,3589,7178,0,1412 /
&OBST XB= 3671,7342,3589,7178,0,1450 /
&OBST XB= 3671,7342,3589,7178,0,1451 /
&OBST XB= 3671,7342,3589,7178,0,1522 /
&OBST XB= 3671,7342,3589,7178,0,1515 /
&OBST XB= 3671,7342,3589,7178,0,1679 /
&OBST XB= 3671,7342,3589,7178,0,1653 /
&OBST XB= 3671,7342,3589,7178,0,1657 /
&OBST XB= 3671,7342,3589,7178,0,1552 /
&OBST XB= 3671,7342,3589,7178,0,1496 /
&OBST XB= 3671,7342,3589,7178,0,1469 /
&OBST XB= 3671,7342,3589,7178,0,1430 /
&OBST XB= 3671,7342,3589,7178,0,1447 /
&OBST XB= 3671,7342,3589,7178,0,1424 /
&OBST XB= 3671,7342,3589,7178,0,1398 /
&OBST XB= 3671,7342,3589,7178,0,1392 /
&OBST XB= 3671,7342,3589,7178,0,1383 /
&OBST XB= 3671,7342,3589,7178,0,1368 /
&OBST XB= 3671,7342,3589,7178,0,1355 /
&OBST XB= 3671,7342,3589,7178,0,1343 /
&OBST XB= 3671,7342,3589,7178,0,1336 /
&OBST XB= 3671,7342,3589,7178,0,1320 /
&OBST XB= 3671,7342,3589,7178,0,1305 /
&OBST XB= 3671,7342,3589,7178,0,1294 /
&OBST XB= 3671,7342,3589,7178,0,1266 /
&OBST XB= 3671,7342,3589,7178,0,1263 /
&OBST XB= 3671,7342,3589,7178,0,1258 /
&OBST XB= 3671,7342,3589,7178,0,1240 /
&OBST XB= 3671,7342,3589,7178,0,1232 /
&OBST XB= 3671,7342,3589,7178,0,1229 /
&OBST XB= 3671,7342,3589,7178,0,1225 /
&OBST XB= 3671,7342,3589,7178,0,1223 /
&OBST XB= 3671,7342,3589,7178,0,1221 /
&OBST XB= 3671,7342,3589,7178,0,1219 /
&OBST XB= 3671,7342,3589,7178,0,1217 /
&OBST XB= 3671,7342,3589,7178,0,1217 /
&OBST XB= 3671,7342,3589,7178,0,1217 /
&OBST XB= 3671,7342,3589,7178,0,1217 /
&OBST XB= 3671,7342,3589,7178,0,1217 /
&OBST XB= 3671,7342,3589,7178,0,1215 /
&OBST XB= 3671,7342,3589,7178,0,1213 /
&OBST XB= 3671,7342,3589,7178,0,1212 /
&OBST XB= 3671,7342,3589,7178,0,1211 /
&OBST XB= 3671,7342,3589,7178,0,1211 /
&OBST XB= 3671,7342,3589,7178,0,1214 /
&OBST XB= 3671,7342,3589,7178,0,1214 /
&OBST XB= 3671,7342,3589,7178,0,1213 /
&OBST XB= 3671,7342,3589,7178,0,1213 /
&OBST XB= 3671,7342,3589,7178,0,1211 /
&OBST XB= 3671,7342,3589,7178,0,1211 /
&OBST XB= 3671,7342,3589,7178,0,1209 /
&OBST XB= 3671,7342,3589,7178,0,1211 /
&OBST XB= 3671,7342,3589,7178,0,1209 /
&OBST XB= 3671,7342,3589,7178,0,1210 /
&OBST XB= 3671,7342,3589,7178,0,1210 /
&OBST XB= 3671,7342,3589,7178,0,1208 /
&OBST XB= 3671,7342,3589,7178,0,1208 /
&OBST XB= 3671,7342,3589,7178,0,1210 /
&OBST XB= 3671,7342,3589,7178,0,1210 /
&OBST XB= 3671,7342,3589,7178,0,1211 /
&OBST XB= 3671,7342,3589,7178,0,1211 /
&OBST XB= 3671,7342,3589,7178,0,1211 /
&OBST XB= 3671,7342,3589,7178,0,1209 /
&OBST XB= 3671,7342,3589,7178,0,1210 /
&OBST XB= 3671,7342,3589,7178,0,1209 /
&OBST XB= 3671,7342,3589,7178,0,1210 /
&OBST XB= 3671,7342,3589,7178,0,1209 /
&OBST XB= 3671,7342,3589,7178,0,1207 /
&OBST XB= 3671,7342,3589,7178,0,1208 /
&OBST XB= 3671,7342,3589,7178,0,1205 /
&OBST XB= 3671,7342,3589,7178,0,1205 /
&OBST XB= 3671,7342,3589,7178,0,1207 /
&OBST XB= 3671,7342,3589,7178,0,1209 /
&OBST XB= 3671,7342,3589,7178,0,1209 /
&OBST XB= 3671,7342,3589,7178,0,1209 /
&OBST XB= 3671,7342,3589,7178,0,1209 /
&OBST XB= 3671,7342,3589,7178,0,1209 /
&OBST XB= 3671,7342,3589,7178,0,1208 /
&OBST XB= 3671,7342,3589,7178,0,1209 /
&OBST XB= 3671,7342,3589,7178,0,1209 /
&OBST XB= 3671,7342,3589,7178,0,1209 /
&OBST XB= 3671,7342,3589,7178,0,1209 /
&OBST XB= 3671,7342,3589,7178,0,1210 /
&OBST XB= 3671,7342,3589,7178,0,1208 /
&OBST XB= 3671,7342,3589,7178,0,1208 /
&OBST XB= 3671,7342,3589,7178,0,1210 /
&OBST XB= 3671,7342,3589,7178,0,1210 /
&OBST XB= 3671,7342,3589,7178,0,1210 /
&OBST XB= 3671,7342,3589,7178,0,1211 /
&OBST XB= 3671,7342,3589,7178,0,1208 /
&OBST XB= 3671,7342,3589,7178,0,1208 /
&OBST XB= 3671,7342,3589,7178,0,1209 /
&OBST XB= 3671,7342,3589,7178,0,1213 /
&OBST XB= 3671,7342,3589,7178,0,1215 /
&OBST XB= 3671,7342,3589,7178,0,1216 /
&OBST XB= 7342,11013,7178,10767,0,1695 /
&OBST XB= 7342,11013,7178,10767,0,1707 /
&OBST XB= 7342,11013,7178,10767,0,1708 /
&OBST XB= 7342,11013,7178,10767,0,1703 /
&OBST XB= 7342,11013,7178,10767,0,1678 /
&OBST XB= 7342,11013,7178,10767,0,1683 /
&OBST XB= 7342,11013,7178,10767,0,1692 /
&OBST XB= 7342,11013,7178,10767,0,1718 /
&OBST XB= 7342,11013,7178,10767,0,1745 /
&OBST XB= 7342,11013,7178,10767,0,1764 /
&OBST XB= 7342,11013,7178,10767,0,1782 /
&OBST XB= 7342,11013,7178,10767,0,1725 /
&OBST XB= 7342,11013,7178,10767,0,1792 /
&OBST XB= 7342,11013,7178,10767,0,1788 /
&OBST XB= 7342,11013,7178,10767,0,1813 /
&OBST XB= 7342,11013,7178,10767,0,1830 /
&OBST XB= 7342,11013,7178,10767,0,1837 /
&OBST XB= 7342,11013,7178,10767,0,1845 /
&OBST XB= 7342,11013,7178,10767,0,1873 /
&OBST XB= 7342,11013,7178,10767,0,1877 /
&OBST XB= 7342,11013,7178,10767,0,1914 /
&OBST XB= 7342,11013,7178,10767,0,1977 /
&OBST XB= 7342,11013,7178,10767,0,1968 /
&OBST XB= 7342,11013,7178,10767,0,1949 /
&OBST XB= 7342,11013,7178,10767,0,1927 /
&OBST XB= 7342,11013,7178,10767,0,1959 /
&OBST XB= 7342,11013,7178,10767,0,1982 /
&OBST XB= 7342,11013,7178,10767,0,1963 /
&OBST XB= 7342,11013,7178,10767,0,2000 /
&OBST XB= 7342,11013,7178,10767,0,1970 /
&OBST XB= 7342,11013,7178,10767,0,1926 /
&OBST XB= 7342,11013,7178,10767,0,1903 /
&OBST XB= 7342,11013,7178,10767,0,1882 /
&OBST XB= 7342,11013,7178,10767,0,1883 /
&OBST XB= 7342,11013,7178,10767,0,1916 /
&OBST XB= 7342,11013,7178,10767,0,1912 /
&OBST XB= 7342,11013,7178,10767,0,1880 /
&OBST XB= 7342,11013,7178,10767,0,1823 /
&OBST XB= 7342,11013,7178,10767,0,1788 /
&OBST XB= 7342,11013,7178,10767,0,1777 /
&OBST XB= 7342,11013,7178,10767,0,1734 /
&OBST XB= 7342,11013,7178,10767,0,1752 /
&OBST XB= 7342,11013,7178,10767,0,1709 /
&OBST XB= 7342,11013,7178,10767,0,1700 /
&OBST XB= 7342,11013,7178,10767,0,1695 /
&OBST XB= 7342,11013,7178,10767,0,1688 /
&OBST XB= 7342,11013,7178,10767,0,1684 /
&OBST XB= 7342,11013,7178,10767,0,1679 /
&OBST XB= 7342,11013,7178,10767,0,1667 /
&OBST XB= 7342,11013,7178,10767,0,1664 /
&OBST XB= 7342,11013,7178,10767,0,1665 /
&OBST XB= 7342,11013,7178,10767,0,1654 /
&OBST XB= 7342,11013,7178,10767,0,1646 /
&OBST XB= 7342,11013,7178,10767,0,1653 /
&OBST XB= 7342,11013,7178,10767,0,1651 /
&OBST XB= 7342,11013,7178,10767,0,1640 /
&OBST XB= 7342,11013,7178,10767,0,1640 /
&OBST XB= 7342,11013,7178,10767,0,1647 /
&OBST XB= 7342,11013,7178,10767,0,1641 /
&OBST XB= 7342,11013,7178,10767,0,1636 /
&OBST XB= 7342,11013,7178,10767,0,1634 /
&OBST XB= 7342,11013,7178,10767,0,1634 /
&OBST XB= 7342,11013,7178,10767,0,1630 /
&OBST XB= 7342,11013,7178,10767,0,1628 /
&OBST XB= 7342,11013,7178,10767,0,1626 /
&OBST XB= 7342,11013,7178,10767,0,1639 /
&OBST XB= 7342,11013,7178,10767,0,1621 /
&OBST XB= 7342,11013,7178,10767,0,1619 /
&OBST XB= 7342,11013,7178,10767,0,1639 /
&OBST XB= 7342,11013,7178,10767,0,1642 /
&OBST XB= 7342,11013,7178,10767,0,1646 /
&OBST XB= 7342,11013,7178,10767,0,1647 /
&OBST XB= 7342,11013,7178,10767,0,1642 /
&OBST XB= 7342,11013,7178,10767,0,1645 /
&OBST XB= 7342,11013,7178,10767,0,1642 /
&OBST XB= 7342,11013,7178,10767,0,1660 /
&OBST XB= 7342,11013,7178,10767,0,1676 /
&OBST XB= 7342,11013,7178,10767,0,1679 /
&OBST XB= 7342,11013,7178,10767,0,1697 /
&OBST XB= 7342,11013,7178,10767,0,1711 /
&OBST XB= 7342,11013,7178,10767,0,1776 /
&OBST XB= 7342,11013,7178,10767,0,1779 /
&OBST XB= 7342,11013,7178,10767,0,1781 /
&OBST XB= 7342,11013,7178,10767,0,1798 /
&OBST XB= 7342,11013,7178,10767,0,1818 /
&OBST XB= 7342,11013,7178,10767,0,1932 /
&OBST XB= 7342,11013,7178,10767,0,1926 /
&OBST XB= 7342,11013,7178,10767,0,1877 /
&OBST XB= 7342,11013,7178,10767,0,1860 /
&OBST XB= 7342,11013,7178,10767,0,1919 /
&OBST XB= 7342,11013,7178,10767,0,1924 /
&OBST XB= 7342,11013,7178,10767,0,1866 /
&OBST XB= 7342,11013,7178,10767,0,1853 /
&OBST XB= 7342,11013,7178,10767,0,1854 /
&OBST XB= 7342,11013,7178,10767,0,1849 /
&OBST XB= 7342,11013,7178,10767,0,1851 /
&OBST XB= 7342,11013,7178,10767,0,1878 /
&OBST XB= 7342,11013,7178,10767,0,1868 /
&OBST XB= 7342,11013,7178,10767,0,1884 /
&OBST XB= 7342,11013,7178,10767,0,1909 /
&OBST XB= 7342,11013,7178,10767,0,1889 /
&OBST XB= 7342,11013,7178,10767,0,1689 /
&OBST XB= 7342,11013,7178,10767,0,1636 /
&OBST XB= 7342,11013,7178,10767,0,1588 /
&OBST XB= 7342,11013,7178,10767,0,1548 /
&OBST XB= 7342,11013,7178,10767,0,1536 /
&OBST XB= 7342,11013,7178,10767,0,1538 /
&OBST XB= 7342,11013,7178,10767,0,1570 /
&OBST XB= 7342,11013,7178,10767,0,1590 /
&OBST XB= 7342,11013,7178,10767,0,1596 /
&OBST XB= 7342,11013,7178,10767,0,1617 /
&OBST XB= 7342,11013,7178,10767,0,1642 /
&OBST XB= 7342,11013,7178,10767,0,1636 /
&OBST XB= 7342,11013,7178,10767,0,1638 /
&OBST XB= 7342,11013,7178,10767,0,1648 /
&OBST XB= 7342,11013,7178,10767,0,1670 /
&OBST XB= 7342,11013,7178,10767,0,1659 /
&OBST XB= 7342,11013,7178,10767,0,1685 /
&OBST XB= 7342,11013,7178,10767,0,1779 /
&OBST XB= 7342,11013,7178,10767,0,1812 /
&OBST XB= 7342,11013,7178,10767,0,1925 /
&OBST XB= 7342,11013,7178,10767,0,1979 /
&OBST XB= 7342,11013,7178,10767,0,2081 /
&OBST XB= 7342,11013,7178,10767,0,2000 /
&OBST XB= 7342,11013,7178,10767,0,1923 /
&OBST XB= 7342,11013,7178,10767,0,1906 /
&OBST XB= 7342,11013,7178,10767,0,1871 /
&OBST XB= 7342,11013,7178,10767,0,1834 /
&OBST XB= 7342,11013,7178,10767,0,1862 /
&OBST XB= 7342,11013,7178,10767,0,1719 /
&OBST XB= 7342,11013,7178,10767,0,1638 /
&OBST XB= 7342,11013,7178,10767,0,1586 /
&OBST XB= 7342,11013,7178,10767,0,1554 /
&OBST XB= 7342,11013,7178,10767,0,1554 /
&OBST XB= 7342,11013,7178,10767,0,1531 /
&OBST XB= 7342,11013,7178,10767,0,1478 /
&OBST XB= 7342,11013,7178,10767,0,1515 /
&OBST XB= 7342,11013,7178,10767,0,1416 /
&OBST XB= 7342,11013,7178,10767,0,1376 /
&OBST XB= 7342,11013,7178,10767,0,1356 /
&OBST XB= 7342,11013,7178,10767,0,1374 /
&OBST XB= 7342,11013,7178,10767,0,1303 /
&OBST XB= 7342,11013,7178,10767,0,1285 /
&OBST XB= 7342,11013,7178,10767,0,1271 /
&OBST XB= 7342,11013,7178,10767,0,1261 /
&OBST XB= 7342,11013,7178,10767,0,1255 /
&OBST XB= 7342,11013,7178,10767,0,1249 /
&OBST XB= 7342,11013,7178,10767,0,1264 /
&OBST XB= 7342,11013,7178,10767,0,1260 /
&OBST XB= 7342,11013,7178,10767,0,1258 /
&OBST XB= 7342,11013,7178,10767,0,1260 /
&OBST XB= 7342,11013,7178,10767,0,1256 /
&OBST XB= 7342,11013,7178,10767,0,1258 /
&OBST XB= 7342,11013,7178,10767,0,1260 /
&OBST XB= 7342,11013,7178,10767,0,1258 /
&OBST XB= 7342,11013,7178,10767,0,1261 /
&OBST XB= 7342,11013,7178,10767,0,1263 /
&OBST XB= 7342,11013,7178,10767,0,1266 /
&OBST XB= 7342,11013,7178,10767,0,1263 /
&OBST XB= 7342,11013,7178,10767,0,1269 /
&OBST XB= 7342,11013,7178,10767,0,1277 /
&OBST XB= 7342,11013,7178,10767,0,1277 /
&OBST XB= 7342,11013,7178,10767,0,1293 /
&OBST XB= 7342,11013,7178,10767,0,1306 /
&OBST XB= 7342,11013,7178,10767,0,1329 /
&OBST XB= 7342,11013,7178,10767,0,1323 /
&OBST XB= 7342,11013,7178,10767,0,1341 /
&OBST XB= 7342,11013,7178,10767,0,1398 /
&OBST XB= 7342,11013,7178,10767,0,1406 /
&OBST XB= 7342,11013,7178,10767,0,1461 /
&OBST XB= 7342,11013,7178,10767,0,1468 /
&OBST XB= 7342,11013,7178,10767,0,1502 /
&OBST XB= 7342,11013,7178,10767,0,1536 /
&OBST XB= 7342,11013,7178,10767,0,1643 /
&OBST XB= 7342,11013,7178,10767,0,1750 /
&OBST XB= 7342,11013,7178,10767,0,1650 /
&OBST XB= 7342,11013,7178,10767,0,1611 /
&OBST XB= 7342,11013,7178,10767,0,1509 /
&OBST XB= 7342,11013,7178,10767,0,1458 /
&OBST XB= 7342,11013,7178,10767,0,1431 /
&OBST XB= 7342,11013,7178,10767,0,1411 /
&OBST XB= 7342,11013,7178,10767,0,1393 /
&OBST XB= 7342,11013,7178,10767,0,1387 /
&OBST XB= 7342,11013,7178,10767,0,1380 /
&OBST XB= 7342,11013,7178,10767,0,1378 /
&OBST XB= 7342,11013,7178,10767,0,1360 /
&OBST XB= 7342,11013,7178,10767,0,1348 /
&OBST XB= 7342,11013,7178,10767,0,1341 /
&OBST XB= 7342,11013,7178,10767,0,1331 /
&OBST XB= 7342,11013,7178,10767,0,1322 /
&OBST XB= 7342,11013,7178,10767,0,1315 /
&OBST XB= 7342,11013,7178,10767,0,1307 /
&OBST XB= 7342,11013,7178,10767,0,1271 /
&OBST XB= 7342,11013,7178,10767,0,1263 /
&OBST XB= 7342,11013,7178,10767,0,1255 /
&OBST XB= 7342,11013,7178,10767,0,1244 /
&OBST XB= 7342,11013,7178,10767,0,1238 /
&OBST XB= 7342,11013,7178,10767,0,1229 /
&OBST XB= 7342,11013,7178,10767,0,1225 /
&OBST XB= 7342,11013,7178,10767,0,1223 /
&OBST XB= 7342,11013,7178,10767,0,1221 /
&OBST XB= 7342,11013,7178,10767,0,1219 /
&OBST XB= 7342,11013,7178,10767,0,1219 /
&OBST XB= 7342,11013,7178,10767,0,1217 /
&OBST XB= 7342,11013,7178,10767,0,1215 /
&OBST XB= 7342,11013,7178,10767,0,1214 /
&OBST XB= 7342,11013,7178,10767,0,1215 /
&OBST XB= 7342,11013,7178,10767,0,1216 /
&OBST XB= 7342,11013,7178,10767,0,1212 /
&OBST XB= 7342,11013,7178,10767,0,1211 /
&OBST XB= 7342,11013,7178,10767,0,1211 /
&OBST XB= 7342,11013,7178,10767,0,1212 /
&OBST XB= 7342,11013,7178,10767,0,1213 /
&OBST XB= 7342,11013,7178,10767,0,1213 /
&OBST XB= 7342,11013,7178,10767,0,1213 /
&OBST XB= 7342,11013,7178,10767,0,1213 /
&OBST XB= 7342,11013,7178,10767,0,1212 /
&OBST XB= 7342,11013,7178,10767,0,1211 /
&OBST XB= 7342,11013,7178,10767,0,1211 /
&OBST XB= 7342,11013,7178,10767,0,1211 /
&OBST XB= 7342,11013,7178,10767,0,1211 /
&OBST XB= 7342,11013,7178,10767,0,1210 /
&OBST XB= 7342,11013,7178,10767,0,1208 /
&OBST XB= 7342,11013,7178,10767,0,1208 /
&OBST XB= 7342,11013,7178,10767,0,1208 /
&OBST XB= 7342,11013,7178,10767,0,1211 /
&OBST XB= 7342,11013,7178,10767,0,1211 /
&OBST XB= 7342,11013,7178,10767,0,1211 /
&OBST XB= 7342,11013,7178,10767,0,1211 /
&OBST XB= 7342,11013,7178,10767,0,1211 /
&OBST XB= 7342,11013,7178,10767,0,1209 /
&OBST XB= 7342,11013,7178,10767,0,1208 /
&OBST XB= 7342,11013,7178,10767,0,1208 /
&OBST XB= 7342,11013,7178,10767,0,1208 /
&OBST XB= 7342,11013,7178,10767,0,1209 /
&OBST XB= 7342,11013,7178,10767,0,1208 /
&OBST XB= 7342,11013,7178,10767,0,1208 /
&OBST XB= 7342,11013,7178,10767,0,1207 /
&OBST XB= 7342,11013,7178,10767,0,1207 /
&OBST XB= 7342,11013,7178,10767,0,1209 /
&OBST XB= 7342,11013,7178,10767,0,1208 /
&OBST XB= 7342,11013,7178,10767,0,1209 /
&OBST XB= 7342,11013,7178,10767,0,1208 /
&OBST XB= 7342,11013,7178,10767,0,1208 /
&OBST XB= 7342,11013,7178,10767,0,1208 /
&OBST XB= 7342,11013,7178,10767,0,1207 /
&OBST XB= 7342,11013,7178,10767,0,1209 /
&OBST XB= 7342,11013,7178,10767,0,1209 /
&OBST XB= 7342,11013,7178,10767,0,1209 /
&OBST XB= 7342,11013,7178,10767,0,1210 /
&OBST XB= 7342,11013,7178,10767,0,1209 /
&OBST XB= 7342,11013,7178,10767,0,1209 /
&OBST XB= 7342,11013,7178,10767,0,1208 /
&OBST XB= 7342,11013,7178,10767,0,1209 /
&OBST XB= 7342,11013,7178,10767,0,1210 /
&OBST XB= 7342,11013,7178,10767,0,1210 /
&OBST XB= 7342,11013,7178,10767,0,1209 /
&OBST XB= 7342,11013,7178,10767,0,1208 /
&OBST XB= 7342,11013,7178,10767,0,1208 /
&OBST XB= 7342,11013,7178,10767,0,1211 /
&OBST XB= 7342,11013,7178,10767,0,1214 /
&OBST XB= 7342,11013,7178,10767,0,1215 /
&OBST XB= 7342,11013,7178,10767,0,1216 /
&OBST XB= 11013,14684,10767,14356,0,1615 /
&OBST XB= 11013,14684,10767,14356,0,1662 /