&HEAD  CHID='built-curl-test', Title='2020-12-28built-curl-test' / 

&TIME T_END=1 /

&DUMP WRITE_XYZ=.TRUE., DT_PL3D=0.1 /
&REAC FUEL='CELLULOSE', C=6, H=10, O=5, SOOT_YIELD=0.01, HEAT_OF_COMBUSTION=18607. /
&MISC LEVEL_SET_MODE=4 /

&VENT MB='XMIN' SURF_ID='OPEN' / 
&VENT MB='XMAX' SURF_ID='OPEN' / 
&VENT MB='YMIN' SURF_ID='OPEN' / 
&VENT MB='YMAX' SURF_ID='OPEN' / 
&VENT MB='ZMAX' SURF_ID='OPEN' / 


&SURF ID='1', VEG_LSET_FUEL_INDEX=1, RGB=255,254,222/
&SURF ID='2', VEG_LSET_FUEL_INDEX=2, RGB=255,253,102/
&SURF ID='3',  VEG_LSET_FUEL_INDEX=3, RGB= 236,212,99/
&SURF ID='4',  VEG_LSET_FUEL_INDEX=4, RGB=254,193,119/
&SURF ID='5', VEG_LSET_FUEL_INDEX=5, RGB=249, 197, 92/
&SURF ID='6',  VEG_LSET_FUEL_INDEX=6, RGB=217, 196, 152/
&SURF ID='7',  VEG_LSET_FUEL_INDEX=7, RGB=170, 155, 127/
&SURF ID='8',  VEG_LSET_FUEL_INDEX=8, RGB=229, 253, 214/
&SURF ID='9',  VEG_LSET_FUEL_INDEX=9, RGB=162, 191, 90/
&SURF ID='10', VEG_LSET_FUEL_INDEX=10, RGB=162, 191, 90/
&SURF ID='11',  VEG_LSET_FUEL_INDEX=11, RGB=235, 212, 253/
&SURF ID='12',  VEG_LSET_FUEL_INDEX=12, RGB=148,212,116/
&SURF ID='13',  VEG_LSET_FUEL_INDEX=13, RGB=88,212,102/
&SURF ID='0',  RGB=186, 119, 80/
&SURF ID='IGN FIRE', HRRPUA = 500, COLOR = 'RED', RAMP_Q = 'fire' /
&RAMP ID='fire', T=0, F=0. /
&RAMP ID='fire', T=1, F=1. /
&RAMP ID='fire', T=60, F=1. /
&RAMP ID='fire', T=61, F=0. /
&OBST XB=-2740.793736911379,-2690.793736911379,2727.1510708697606,2777.1510708697606,600,601,SURF_ID = 'IGN FIRE' /
&MESH IJK=100, 100, 100, XB=-3241,3241,-3252,3227,599,770/
&OBST XB= -3241,-3211,3227,3197,599,628,  SURF_ID='2'/ 
&OBST XB= -3241,-3211,3197,3167,599,631,  SURF_ID='9'/ 
&OBST XB= -3241,-3211,3167,3137,599,638,  SURF_ID='9'/ 
&OBST XB= -3241,-3211,3137,3107,599,643,  SURF_ID='2'/ 
&OBST XB= -3241,-3211,3107,3077,599,643,  SURF_ID='2'/ 
&OBST XB= -3241,-3211,3077,3047,599,647,  SURF_ID='0'/ 
&OBST XB= -3241,-3211,3047,3017,599,650,  SURF_ID='2'/ 
&OBST XB= -3241,-3211,3017,2987,599,651,  SURF_ID='0'/ 
&OBST XB= -3241,-3211,2987,2957,599,646,  SURF_ID='0'/ 
&OBST XB= -3241,-3211,2957,2927,599,637,  SURF_ID='9'/ 
&OBST XB= -3241,-3211,2927,2897,599,629,  SURF_ID='9'/ 
&OBST XB= -3241,-3211,2897,2867,599,628,  SURF_ID='8'/ 
&OBST XB= -3241,-3211,2867,2837,599,628,  SURF_ID='8'/ 
&OBST XB= -3241,-3211,2837,2807,599,634,  SURF_ID='8'/ 
&OBST XB= -3241,-3211,2807,2777,599,632,  SURF_ID='2'/ 
&OBST XB= -3241,-3211,2777,2747,599,634,  SURF_ID='9'/ 
&OBST XB= -3241,-3211,2747,2717,599,646,  SURF_ID='1'/ 
&OBST XB= -3241,-3211,2717,2687,599,641,  SURF_ID='2'/ 
&OBST XB= -3241,-3211,2687,2657,599,635,  SURF_ID='0'/ 
&OBST XB= -3241,-3211,2657,2627,599,635,  SURF_ID='0'/ 
&OBST XB= -3241,-3211,2627,2597,599,635,  SURF_ID='0'/ 
&OBST XB= -3241,-3211,2597,2567,599,640,  SURF_ID='8'/ 
&OBST XB= -3241,-3211,2567,2537,599,643,  SURF_ID='0'/ 
&OBST XB= -3241,-3211,2537,2507,599,643,  SURF_ID='0'/ 
&OBST XB= -3241,-3211,2507,2477,599,644,  SURF_ID='0'/ 
&OBST XB= -3241,-3211,2477,2447,599,636,  SURF_ID='0'/ 
&OBST XB= -3241,-3211,2447,2417,599,636,  SURF_ID='1'/ 
&OBST XB= -3241,-3211,2417,2387,599,638,  SURF_ID='0'/ 
&OBST XB= -3241,-3211,2387,2357,599,638,  SURF_ID='0'/ 
&OBST XB= -3241,-3211,2357,2327,599,638,  SURF_ID='0'/ 
&OBST XB= -3241,-3211,2327,2297,599,639,  SURF_ID='0'/ 
&OBST XB= -3241,-3211,2297,2267,599,638,  SURF_ID='0'/ 
&OBST XB= -3241,-3211,2267,2237,599,636,  SURF_ID='0'/ 
&OBST XB= -3241,-3211,2237,2207,599,633,  SURF_ID='0'/ 
&OBST XB= -3241,-3211,2207,2177,599,629,  SURF_ID='0'/ 
&OBST XB= -3241,-3211,2177,2147,599,626,  SURF_ID='8'/ 
&OBST XB= -3241,-3211,2147,2117,599,626,  SURF_ID='8'/ 
&OBST XB= -3241,-3211,2117,2087,599,624,  SURF_ID='8'/ 
&OBST XB= -3241,-3211,2087,2057,599,617,  SURF_ID='8'/ 
&OBST XB= -3241,-3211,2057,2027,599,616,  SURF_ID='0'/ 
&OBST XB= -3241,-3211,2027,1997,599,613,  SURF_ID='0'/ 
&OBST XB= -3241,-3211,1997,1967,599,616,  SURF_ID='8'/ 
&OBST XB= -3241,-3211,1967,1937,599,614,  SURF_ID='8'/ 
&OBST XB= -3241,-3211,1937,1907,599,619,  SURF_ID='8'/ 
&OBST XB= -3241,-3211,1907,1877,599,619,  SURF_ID='8'/ 
&OBST XB= -3241,-3211,1877,1847,599,612,  SURF_ID='8'/ 
&OBST XB= -3241,-3211,1847,1817,599,611,  SURF_ID='8'/ 
&OBST XB= -3241,-3211,1817,1787,599,610,  SURF_ID='0'/ 
&OBST XB= -3241,-3211,1787,1757,599,613,  SURF_ID='0'/ 
&OBST XB= -3241,-3211,1757,1727,599,618,  SURF_ID='8'/ 
&OBST XB= -3241,-3211,1727,1697,599,623,  SURF_ID='9'/ 
&OBST XB= -3241,-3211,1697,1667,599,624,  SURF_ID='8'/ 
&OBST XB= -3241,-3211,1667,1637,599,624,  SURF_ID='8'/ 
&OBST XB= -3241,-3211,1637,1607,599,625,  SURF_ID='0'/ 
&OBST XB= -3241,-3211,1607,1577,599,619,  SURF_ID='9'/ 
&OBST XB= -3241,-3211,1577,1547,599,615,  SURF_ID='9'/ 
&OBST XB= -3241,-3211,1547,1517,599,621,  SURF_ID='0'/ 
&OBST XB= -3241,-3211,1517,1487,599,626,  SURF_ID='0'/ 
&OBST XB= -3241,-3211,1487,1457,599,631,  SURF_ID='0'/ 
&OBST XB= -3241,-3211,1457,1427,599,632,  SURF_ID='8'/ 
&OBST XB= -3241,-3211,1427,1397,599,632,  SURF_ID='8'/ 
&OBST XB= -3241,-3211,1397,1367,599,636,  SURF_ID='1'/ 
&OBST XB= -3241,-3211,1367,1337,599,640,  SURF_ID='2'/ 
&OBST XB= -3241,-3211,1337,1307,599,643,  SURF_ID='0'/ 
&OBST XB= -3241,-3211,1307,1277,599,646,  SURF_ID='0'/ 
&OBST XB= -3241,-3211,1277,1247,599,645,  SURF_ID='0'/ 
&OBST XB= -3241,-3211,1247,1217,599,645,  SURF_ID='0'/ 
&OBST XB= -3241,-3211,1217,1187,599,643,  SURF_ID='0'/ 
&OBST XB= -3241,-3211,1187,1157,599,643,  SURF_ID='0'/ 
&OBST XB= -3241,-3211,1157,1127,599,644,  SURF_ID='0'/ 
&OBST XB= -3241,-3211,1127,1097,599,644,  SURF_ID='2'/ 
&OBST XB= -3241,-3211,1097,1067,599,638,  SURF_ID='1'/ 
&OBST XB= -3241,-3211,1067,1037,599,636,  SURF_ID='0'/ 
&OBST XB= -3241,-3211,1037,1007,599,634,  SURF_ID='0'/ 
&OBST XB= -3241,-3211,1007,977,599,631,  SURF_ID='2'/ 
&OBST XB= -3241,-3211,977,947,599,626,  SURF_ID='0'/ 
&OBST XB= -3241,-3211,947,917,599,626,  SURF_ID='0'/ 
&OBST XB= -3241,-3211,917,887,599,620,  SURF_ID='0'/ 
&OBST XB= -3241,-3211,887,857,599,612,  SURF_ID='0'/ 
&OBST XB= -3241,-3211,857,827,599,607,  SURF_ID='0'/ 
&OBST XB= -3241,-3211,827,797,599,603,  SURF_ID='1'/ 
&OBST XB= -3241,-3211,797,767,599,603,  SURF_ID='1'/ 
&OBST XB= -3241,-3211,767,737,599,601,  SURF_ID='9'/ 
&OBST XB= -3241,-3211,737,707,599,599,  SURF_ID='8'/ 
&OBST XB= -3241,-3211,707,677,599,599,  SURF_ID='8'/ 
&OBST XB= -3241,-3211,677,647,599,600,  SURF_ID='0'/ 
&OBST XB= -3241,-3211,647,617,599,603,  SURF_ID='0'/ 
&OBST XB= -3241,-3211,617,587,599,605,  SURF_ID='2'/ 
&OBST XB= -3241,-3211,587,557,599,607,  SURF_ID='0'/ 
&OBST XB= -3241,-3211,557,527,599,608,  SURF_ID='0'/ 
&OBST XB= -3241,-3211,527,497,599,608,  SURF_ID='0'/ 
&OBST XB= -3241,-3211,497,467,599,615,  SURF_ID='0'/ 
&OBST XB= -3241,-3211,467,437,599,615,  SURF_ID='0'/ 
&OBST XB= -3241,-3211,437,407,599,620,  SURF_ID='9'/ 
&OBST XB= -3241,-3211,407,377,599,624,  SURF_ID='8'/ 
&OBST XB= -3241,-3211,377,347,599,626,  SURF_ID='9'/ 
&OBST XB= -3241,-3211,347,317,599,637,  SURF_ID='9'/ 
&OBST XB= -3241,-3211,317,287,599,644,  SURF_ID='9'/ 
&OBST XB= -3241,-3211,287,257,599,658,  SURF_ID='0'/ 
&OBST XB= -3241,-3211,257,227,599,661,  SURF_ID='0'/ 
&OBST XB= -3241,-3211,227,197,599,661,  SURF_ID='0'/ 
&OBST XB= -3241,-3211,197,167,599,662,  SURF_ID='0'/ 
&OBST XB= -3241,-3211,167,137,599,666,  SURF_ID='0'/ 
&OBST XB= -3241,-3211,137,107,599,665,  SURF_ID='0'/ 
&OBST XB= -3241,-3211,107,77,599,664,  SURF_ID='0'/ 
&OBST XB= -3241,-3211,77,47,599,663,  SURF_ID='0'/ 
&OBST XB= -3241,-3211,47,17,599,659,  SURF_ID='0'/ 
&OBST XB= -3241,-3211,17,-13,599,644,  SURF_ID='0'/ 
&OBST XB= -3241,-3211,-13,-43,599,644,  SURF_ID='0'/ 
&OBST XB= -3241,-3211,-43,-73,599,646,  SURF_ID='0'/ 
&OBST XB= -3241,-3211,-73,-103,599,651,  SURF_ID='0'/ 
&OBST XB= -3241,-3211,-103,-133,599,651,  SURF_ID='0'/ 
&OBST XB= -3241,-3211,-133,-163,599,649,  SURF_ID='0'/ 
&OBST XB= -3241,-3211,-163,-193,599,647,  SURF_ID='0'/ 
&OBST XB= -3241,-3211,-193,-223,599,648,  SURF_ID='0'/ 
&OBST XB= -3241,-3211,-223,-253,599,648,  SURF_ID='0'/ 
&OBST XB= -3241,-3211,-253,-283,599,648,  SURF_ID='0'/ 
&OBST XB= -3241,-3211,-283,-313,599,642,  SURF_ID='0'/ 
&OBST XB= -3241,-3211,-313,-343,599,637,  SURF_ID='0'/ 
&OBST XB= -3241,-3211,-343,-373,599,635,  SURF_ID='0'/ 
&OBST XB= -3241,-3211,-373,-403,599,632,  SURF_ID='0'/ 
&OBST XB= -3241,-3211,-403,-433,599,624,  SURF_ID='0'/ 
&OBST XB= -3241,-3211,-433,-463,599,618,  SURF_ID='9'/ 
&OBST XB= -3241,-3211,-463,-493,599,620,  SURF_ID='0'/ 
&OBST XB= -3241,-3211,-493,-523,599,620,  SURF_ID='0'/ 
&OBST XB= -3241,-3211,-523,-553,599,619,  SURF_ID='0'/ 
&OBST XB= -3241,-3211,-553,-583,599,619,  SURF_ID='0'/ 
&OBST XB= -3241,-3211,-583,-613,599,626,  SURF_ID='0'/ 
&OBST XB= -3241,-3211,-613,-643,599,634,  SURF_ID='0'/ 
&OBST XB= -3241,-3211,-643,-673,599,643,  SURF_ID='1'/ 
&OBST XB= -3241,-3211,-673,-703,599,644,  SURF_ID='0'/ 
&OBST XB= -3241,-3211,-703,-733,599,641,  SURF_ID='0'/ 
&OBST XB= -3241,-3211,-733,-763,599,641,  SURF_ID='0'/ 
&OBST XB= -3241,-3211,-763,-793,599,631,  SURF_ID='9'/ 
&OBST XB= -3241,-3211,-793,-823,599,620,  SURF_ID='1'/ 
&OBST XB= -3241,-3211,-823,-853,599,611,  SURF_ID='0'/ 
&OBST XB= -3241,-3211,-853,-883,599,609,  SURF_ID='0'/ 
&OBST XB= -3241,-3211,-883,-913,599,609,  SURF_ID='0'/ 
&OBST XB= -3241,-3211,-913,-943,599,608,  SURF_ID='0'/ 
&OBST XB= -3241,-3211,-943,-973,599,608,  SURF_ID='0'/ 
&OBST XB= -3241,-3211,-973,-1003,599,608,  SURF_ID='0'/ 
&OBST XB= -3241,-3211,-1003,-1033,599,608,  SURF_ID='0'/ 
&OBST XB= -3241,-3211,-1033,-1063,599,607,  SURF_ID='0'/ 
&OBST XB= -3241,-3211,-1063,-1093,599,607,  SURF_ID='0'/ 
&OBST XB= -3241,-3211,-1093,-1123,599,608,  SURF_ID='0'/ 
&OBST XB= -3241,-3211,-1123,-1153,599,607,  SURF_ID='0'/ 
&OBST XB= -3241,-3211,-1153,-1183,599,609,  SURF_ID='0'/ 
&OBST XB= -3241,-3211,-1183,-1213,599,612,  SURF_ID='0'/ 
&OBST XB= -3241,-3211,-1213,-1243,599,612,  SURF_ID='0'/ 
&OBST XB= -3241,-3211,-1243,-1273,599,608,  SURF_ID='0'/ 
&OBST XB= -3241,-3211,-1273,-1303,599,607,  SURF_ID='0'/ 
&OBST XB= -3241,-3211,-1303,-1333,599,606,  SURF_ID='0'/ 
&OBST XB= -3241,-3211,-1333,-1363,599,607,  SURF_ID='0'/ 
&OBST XB= -3241,-3211,-1363,-1393,599,605,  SURF_ID='0'/ 
&OBST XB= -3241,-3211,-1393,-1423,599,605,  SURF_ID='0'/ 
&OBST XB= -3241,-3211,-1423,-1453,599,606,  SURF_ID='0'/ 
&OBST XB= -3241,-3211,-1453,-1483,599,606,  SURF_ID='0'/ 
&OBST XB= -3241,-3211,-1483,-1513,599,607,  SURF_ID='0'/ 
&OBST XB= -3241,-3211,-1513,-1543,599,607,  SURF_ID='0'/ 
&OBST XB= -3241,-3211,-1543,-1573,599,608,  SURF_ID='0'/ 
&OBST XB= -3241,-3211,-1573,-1603,599,608,  SURF_ID='0'/ 
&OBST XB= -3241,-3211,-1603,-1633,599,608,  SURF_ID='0'/ 
&OBST XB= -3241,-3211,-1633,-1663,599,608,  SURF_ID='0'/ 
&OBST XB= -3241,-3211,-1663,-1693,599,608,  SURF_ID='0'/ 
&OBST XB= -3241,-3211,-1693,-1723,599,608,  SURF_ID='0'/ 
&OBST XB= -3241,-3211,-1723,-1753,599,608,  SURF_ID='0'/ 
&OBST XB= -3241,-3211,-1753,-1783,599,608,  SURF_ID='0'/ 
&OBST XB= -3241,-3211,-1783,-1813,599,609,  SURF_ID='0'/ 
&OBST XB= -3241,-3211,-1813,-1843,599,610,  SURF_ID='0'/ 
&OBST XB= -3241,-3211,-1843,-1873,599,611,  SURF_ID='0'/ 
&OBST XB= -3241,-3211,-1873,-1903,599,613,  SURF_ID='0'/ 
&OBST XB= -3241,-3211,-1903,-1933,599,619,  SURF_ID='0'/ 
&OBST XB= -3241,-3211,-1933,-1963,599,619,  SURF_ID='0'/ 
&OBST XB= -3241,-3211,-1963,-1993,599,619,  SURF_ID='0'/ 
&OBST XB= -3241,-3211,-1993,-2023,599,623,  SURF_ID='8'/ 
&OBST XB= -3241,-3211,-2023,-2053,599,632,  SURF_ID='0'/ 
&OBST XB= -3241,-3211,-2053,-2083,599,635,  SURF_ID='0'/ 
&OBST XB= -3241,-3211,-2083,-2113,599,638,  SURF_ID='0'/ 
&OBST XB= -3241,-3211,-2113,-2143,599,639,  SURF_ID='2'/ 
&OBST XB= -3241,-3211,-2143,-2173,599,633,  SURF_ID='9'/ 
&OBST XB= -3241,-3211,-2173,-2203,599,633,  SURF_ID='9'/ 
&OBST XB= -3241,-3211,-2203,-2233,599,630,  SURF_ID='0'/ 
&OBST XB= -3241,-3211,-2233,-2263,599,634,  SURF_ID='0'/ 
&OBST XB= -3241,-3211,-2263,-2293,599,635,  SURF_ID='0'/ 
&OBST XB= -3241,-3211,-2293,-2323,599,637,  SURF_ID='0'/ 
&OBST XB= -3241,-3211,-2323,-2353,599,639,  SURF_ID='0'/ 
&OBST XB= -3241,-3211,-2353,-2383,599,644,  SURF_ID='8'/ 
&OBST XB= -3241,-3211,-2383,-2413,599,649,  SURF_ID='2'/ 
&OBST XB= -3241,-3211,-2413,-2443,599,649,  SURF_ID='2'/ 
&OBST XB= -3241,-3211,-2443,-2473,599,654,  SURF_ID='0'/ 
&OBST XB= -3241,-3211,-2473,-2503,599,647,  SURF_ID='2'/ 
&OBST XB= -3241,-3211,-2503,-2533,599,651,  SURF_ID='0'/ 
&OBST XB= -3241,-3211,-2533,-2563,599,655,  SURF_ID='8'/ 
&OBST XB= -3241,-3211,-2563,-2593,599,655,  SURF_ID='8'/ 
&OBST XB= -3241,-3211,-2593,-2623,599,643,  SURF_ID='8'/ 
&OBST XB= -3241,-3211,-2623,-2653,599,634,  SURF_ID='9'/ 
&OBST XB= -3241,-3211,-2653,-2683,599,634,  SURF_ID='9'/ 
&OBST XB= -3241,-3211,-2683,-2713,599,640,  SURF_ID='9'/ 
&OBST XB= -3241,-3211,-2713,-2743,599,646,  SURF_ID='9'/ 
&OBST XB= -3241,-3211,-2743,-2773,599,646,  SURF_ID='0'/ 
&OBST XB= -3241,-3211,-2773,-2803,599,635,  SURF_ID='2'/ 
&OBST XB= -3241,-3211,-2803,-2833,599,626,  SURF_ID='9'/ 
&OBST XB= -3241,-3211,-2833,-2863,599,625,  SURF_ID='8'/ 
&OBST XB= -3241,-3211,-2863,-2893,599,634,  SURF_ID='8'/ 
&OBST XB= -3241,-3211,-2893,-2923,599,634,  SURF_ID='8'/ 
&OBST XB= -3241,-3211,-2923,-2953,599,636,  SURF_ID='0'/ 
&OBST XB= -3241,-3211,-2953,-2983,599,638,  SURF_ID='0'/ 
&OBST XB= -3241,-3211,-2983,-3013,599,631,  SURF_ID='0'/ 
&OBST XB= -3241,-3211,-3013,-3043,599,624,  SURF_ID='9'/ 
&OBST XB= -3241,-3211,-3043,-3073,599,621,  SURF_ID='9'/ 
&OBST XB= -3241,-3211,-3073,-3103,599,623,  SURF_ID='2'/ 
&OBST XB= -3241,-3211,-3103,-3133,599,625,  SURF_ID='0'/ 
&OBST XB= -3241,-3211,-3133,-3163,599,625,  SURF_ID='0'/ 
&OBST XB= -3241,-3211,-3163,-3193,599,627,  SURF_ID='0'/ 
&OBST XB= -3241,-3211,-3193,-3223,599,629,  SURF_ID='0'/ 
&OBST XB= -3241,-3211,-3223,-3253,599,630,  SURF_ID='1'/ 
&OBST XB= -3211,-3181,3227,3197,599,629,  SURF_ID='0'/ 
&OBST XB= -3211,-3181,3197,3167,599,630,  SURF_ID='9'/ 
&OBST XB= -3211,-3181,3167,3137,599,638,  SURF_ID='9'/ 
&OBST XB= -3211,-3181,3137,3107,599,643,  SURF_ID='1'/ 
&OBST XB= -3211,-3181,3107,3077,599,643,  SURF_ID='1'/ 
&OBST XB= -3211,-3181,3077,3047,599,647,  SURF_ID='1'/ 
&OBST XB= -3211,-3181,3047,3017,599,648,  SURF_ID='0'/ 
&OBST XB= -3211,-3181,3017,2987,599,648,  SURF_ID='9'/ 
&OBST XB= -3211,-3181,2987,2957,599,646,  SURF_ID='9'/ 
&OBST XB= -3211,-3181,2957,2927,599,642,  SURF_ID='9'/ 
&OBST XB= -3211,-3181,2927,2897,599,633,  SURF_ID='9'/ 
&OBST XB= -3211,-3181,2897,2867,599,626,  SURF_ID='9'/ 
&OBST XB= -3211,-3181,2867,2837,599,626,  SURF_ID='9'/ 
&OBST XB= -3211,-3181,2837,2807,599,627,  SURF_ID='9'/ 
&OBST XB= -3211,-3181,2807,2777,599,636,  SURF_ID='2'/ 
&OBST XB= -3211,-3181,2777,2747,599,640,  SURF_ID='0'/ 
&OBST XB= -3211,-3181,2747,2717,599,642,  SURF_ID='0'/ 
&OBST XB= -3211,-3181,2717,2687,599,638,  SURF_ID='2'/ 
&OBST XB= -3211,-3181,2687,2657,599,634,  SURF_ID='0'/ 
&OBST XB= -3211,-3181,2657,2627,599,633,  SURF_ID='0'/ 
&OBST XB= -3211,-3181,2627,2597,599,633,  SURF_ID='0'/ 
&OBST XB= -3211,-3181,2597,2567,599,639,  SURF_ID='8'/ 
&OBST XB= -3211,-3181,2567,2537,599,643,  SURF_ID='0'/ 
&OBST XB= -3211,-3181,2537,2507,599,643,  SURF_ID='1'/ 
&OBST XB= -3211,-3181,2507,2477,599,640,  SURF_ID='0'/ 
&OBST XB= -3211,-3181,2477,2447,599,635,  SURF_ID='0'/ 
&OBST XB= -3211,-3181,2447,2417,599,635,  SURF_ID='1'/ 
&OBST XB= -3211,-3181,2417,2387,599,637,  SURF_ID='2'/ 
&OBST XB= -3211,-3181,2387,2357,599,637,  SURF_ID='2'/ 
&OBST XB= -3211,-3181,2357,2327,599,638,  SURF_ID='0'/ 
&OBST XB= -3211,-3181,2327,2297,599,640,  SURF_ID='0'/ 
&OBST XB= -3211,-3181,2297,2267,599,641,  SURF_ID='0'/ 
&OBST XB= -3211,-3181,2267,2237,599,637,  SURF_ID='0'/ 
&OBST XB= -3211,-3181,2237,2207,599,634,  SURF_ID='0'/ 
&OBST XB= -3211,-3181,2207,2177,599,634,  SURF_ID='0'/ 
&OBST XB= -3211,-3181,2177,2147,599,632,  SURF_ID='0'/ 
&OBST XB= -3211,-3181,2147,2117,599,632,  SURF_ID='0'/ 
&OBST XB= -3211,-3181,2117,2087,599,630,  SURF_ID='1'/ 
&OBST XB= -3211,-3181,2087,2057,599,632,  SURF_ID='1'/ 
&OBST XB= -3211,-3181,2057,2027,599,621,  SURF_ID='8'/ 
&OBST XB= -3211,-3181,2027,1997,599,618,  SURF_ID='0'/ 
&OBST XB= -3211,-3181,1997,1967,599,622,  SURF_ID='8'/ 
&OBST XB= -3211,-3181,1967,1937,599,628,  SURF_ID='8'/ 
&OBST XB= -3211,-3181,1937,1907,599,628,  SURF_ID='8'/ 
&OBST XB= -3211,-3181,1907,1877,599,628,  SURF_ID='8'/ 
&OBST XB= -3211,-3181,1877,1847,599,620,  SURF_ID='8'/ 
&OBST XB= -3211,-3181,1847,1817,599,611,  SURF_ID='8'/ 
&OBST XB= -3211,-3181,1817,1787,599,609,  SURF_ID='8'/ 
&OBST XB= -3211,-3181,1787,1757,599,610,  SURF_ID='0'/ 
&OBST XB= -3211,-3181,1757,1727,599,614,  SURF_ID='0'/ 
&OBST XB= -3211,-3181,1727,1697,599,621,  SURF_ID='9'/ 
&OBST XB= -3211,-3181,1697,1667,599,621,  SURF_ID='9'/ 
&OBST XB= -3211,-3181,1667,1637,599,621,  SURF_ID='9'/ 
&OBST XB= -3211,-3181,1637,1607,599,622,  SURF_ID='9'/ 
&OBST XB= -3211,-3181,1607,1577,599,616,  SURF_ID='9'/ 
&OBST XB= -3211,-3181,1577,1547,599,614,  SURF_ID='8'/ 
&OBST XB= -3211,-3181,1547,1517,599,622,  SURF_ID='0'/ 
&OBST XB= -3211,-3181,1517,1487,599,627,  SURF_ID='8'/ 
&OBST XB= -3211,-3181,1487,1457,599,634,  SURF_ID='9'/ 
&OBST XB= -3211,-3181,1457,1427,599,636,  SURF_ID='1'/ 
&OBST XB= -3211,-3181,1427,1397,599,636,  SURF_ID='1'/ 
&OBST XB= -3211,-3181,1397,1367,599,635,  SURF_ID='0'/ 
&OBST XB= -3211,-3181,1367,1337,599,637,  SURF_ID='0'/ 
&OBST XB= -3211,-3181,1337,1307,599,641,  SURF_ID='0'/ 
&OBST XB= -3211,-3181,1307,1277,599,643,  SURF_ID='0'/ 
&OBST XB= -3211,-3181,1277,1247,599,644,  SURF_ID='2'/ 
&OBST XB= -3211,-3181,1247,1217,599,641,  SURF_ID='1'/ 
&OBST XB= -3211,-3181,1217,1187,599,640,  SURF_ID='1'/ 
&OBST XB= -3211,-3181,1187,1157,599,640,  SURF_ID='1'/ 
&OBST XB= -3211,-3181,1157,1127,599,641,  SURF_ID='1'/ 
&OBST XB= -3211,-3181,1127,1097,599,640,  SURF_ID='0'/ 
&OBST XB= -3211,-3181,1097,1067,599,637,  SURF_ID='0'/ 
&OBST XB= -3211,-3181,1067,1037,599,634,  SURF_ID='0'/ 
&OBST XB= -3211,-3181,1037,1007,599,632,  SURF_ID='0'/ 
&OBST XB= -3211,-3181,1007,977,599,632,  SURF_ID='2'/ 
&OBST XB= -3211,-3181,977,947,599,629,  SURF_ID='2'/ 
&OBST XB= -3211,-3181,947,917,599,629,  SURF_ID='2'/ 
&OBST XB= -3211,-3181,917,887,599,625,  SURF_ID='0'/ 
&OBST XB= -3211,-3181,887,857,599,612,  SURF_ID='0'/ 
&OBST XB= -3211,-3181,857,827,599,605,  SURF_ID='0'/ 
&OBST XB= -3211,-3181,827,797,599,604,  SURF_ID='1'/ 
&OBST XB= -3211,-3181,797,767,599,603,  SURF_ID='2'/ 
&OBST XB= -3211,-3181,767,737,599,602,  SURF_ID='9'/ 
&OBST XB= -3211,-3181,737,707,599,600,  SURF_ID='9'/ 
&OBST XB= -3211,-3181,707,677,599,600,  SURF_ID='9'/ 
&OBST XB= -3211,-3181,677,647,599,599,  SURF_ID='0'/ 
&OBST XB= -3211,-3181,647,617,599,603,  SURF_ID='0'/ 
&OBST XB= -3211,-3181,617,587,599,606,  SURF_ID='0'/ 
&OBST XB= -3211,-3181,587,557,599,607,  SURF_ID='0'/ 
&OBST XB= -3211,-3181,557,527,599,608,  SURF_ID='0'/ 
&OBST XB= -3211,-3181,527,497,599,607,  SURF_ID='0'/ 
&OBST XB= -3211,-3181,497,467,599,610,  SURF_ID='0'/ 
&OBST XB= -3211,-3181,467,437,599,610,  SURF_ID='0'/ 
&OBST XB= -3211,-3181,437,407,599,620,  SURF_ID='9'/ 
&OBST XB= -3211,-3181,407,377,599,627,  SURF_ID='9'/ 
&OBST XB= -3211,-3181,377,347,599,632,  SURF_ID='9'/ 
&OBST XB= -3211,-3181,347,317,599,643,  SURF_ID='9'/ 
&OBST XB= -3211,-3181,317,287,599,649,  SURF_ID='0'/ 
&OBST XB= -3211,-3181,287,257,599,654,  SURF_ID='9'/ 
&OBST XB= -3211,-3181,257,227,599,657,  SURF_ID='2'/ 
&OBST XB= -3211,-3181,227,197,599,657,  SURF_ID='2'/ 
&OBST XB= -3211,-3181,197,167,599,658,  SURF_ID='0'/ 
&OBST XB= -3211,-3181,167,137,599,659,  SURF_ID='0'/ 
&OBST XB= -3211,-3181,137,107,599,664,  SURF_ID='0'/ 
&OBST XB= -3211,-3181,107,77,599,663,  SURF_ID='0'/ 
&OBST XB= -3211,-3181,77,47,599,657,  SURF_ID='0'/ 
&OBST XB= -3211,-3181,47,17,599,650,  SURF_ID='0'/ 
&OBST XB= -3211,-3181,17,-13,599,640,  SURF_ID='0'/ 
&OBST XB= -3211,-3181,-13,-43,599,640,  SURF_ID='0'/ 
&OBST XB= -3211,-3181,-43,-73,599,639,  SURF_ID='0'/ 
&OBST XB= -3211,-3181,-73,-103,599,647,  SURF_ID='0'/ 
&OBST XB= -3211,-3181,-103,-133,599,649,  SURF_ID='0'/ 
&OBST XB= -3211,-3181,-133,-163,599,649,  SURF_ID='0'/ 
&OBST XB= -3211,-3181,-163,-193,599,646,  SURF_ID='0'/ 
&OBST XB= -3211,-3181,-193,-223,599,647,  SURF_ID='0'/ 
&OBST XB= -3211,-3181,-223,-253,599,648,  SURF_ID='0'/ 
&OBST XB= -3211,-3181,-253,-283,599,648,  SURF_ID='0'/ 
&OBST XB= -3211,-3181,-283,-313,599,648,  SURF_ID='0'/ 
&OBST XB= -3211,-3181,-313,-343,599,642,  SURF_ID='0'/ 
&OBST XB= -3211,-3181,-343,-373,599,641,  SURF_ID='0'/ 
&OBST XB= -3211,-3181,-373,-403,599,639,  SURF_ID='0'/ 
&OBST XB= -3211,-3181,-403,-433,599,634,  SURF_ID='0'/ 
&OBST XB= -3211,-3181,-433,-463,599,628,  SURF_ID='9'/ 
&OBST XB= -3211,-3181,-463,-493,599,615,  SURF_ID='0'/ 
&OBST XB= -3211,-3181,-493,-523,599,615,  SURF_ID='0'/ 
&OBST XB= -3211,-3181,-523,-553,599,618,  SURF_ID='0'/ 
&OBST XB= -3211,-3181,-553,-583,599,618,  SURF_ID='0'/ 
&OBST XB= -3211,-3181,-583,-613,599,619,  SURF_ID='0'/ 
&OBST XB= -3211,-3181,-613,-643,599,622,  SURF_ID='0'/ 
&OBST XB= -3211,-3181,-643,-673,599,631,  SURF_ID='0'/ 
&OBST XB= -3211,-3181,-673,-703,599,638,  SURF_ID='0'/ 
&OBST XB= -3211,-3181,-703,-733,599,638,  SURF_ID='1'/ 
&OBST XB= -3211,-3181,-733,-763,599,638,  SURF_ID='1'/ 
&OBST XB= -3211,-3181,-763,-793,599,613,  SURF_ID='0'/ 
&OBST XB= -3211,-3181,-793,-823,599,611,  SURF_ID='0'/ 
&OBST XB= -3211,-3181,-823,-853,599,610,  SURF_ID='0'/ 
&OBST XB= -3211,-3181,-853,-883,599,608,  SURF_ID='0'/ 
&OBST XB= -3211,-3181,-883,-913,599,608,  SURF_ID='0'/ 
&OBST XB= -3211,-3181,-913,-943,599,608,  SURF_ID='0'/ 
&OBST XB= -3211,-3181,-943,-973,599,608,  SURF_ID='0'/ 
&OBST XB= -3211,-3181,-973,-1003,599,608,  SURF_ID='0'/ 
&OBST XB= -3211,-3181,-1003,-1033,599,608,  SURF_ID='0'/ 
&OBST XB= -3211,-3181,-1033,-1063,599,608,  SURF_ID='0'/ 
&OBST XB= -3211,-3181,-1063,-1093,599,608,  SURF_ID='0'/ 
&OBST XB= -3211,-3181,-1093,-1123,599,608,  SURF_ID='0'/ 
&OBST XB= -3211,-3181,-1123,-1153,599,607,  SURF_ID='0'/ 
&OBST XB= -3211,-3181,-1153,-1183,599,607,  SURF_ID='0'/ 
&OBST XB= -3211,-3181,-1183,-1213,599,606,  SURF_ID='0'/ 
&OBST XB= -3211,-3181,-1213,-1243,599,606,  SURF_ID='0'/ 
&OBST XB= -3211,-3181,-1243,-1273,599,605,  SURF_ID='0'/ 
&OBST XB= -3211,-3181,-1273,-1303,599,604,  SURF_ID='0'/ 
&OBST XB= -3211,-3181,-1303,-1333,599,608,  SURF_ID='0'/ 
&OBST XB= -3211,-3181,-1333,-1363,599,608,  SURF_ID='0'/ 
&OBST XB= -3211,-3181,-1363,-1393,599,604,  SURF_ID='0'/ 
&OBST XB= -3211,-3181,-1393,-1423,599,605,  SURF_ID='0'/ 
&OBST XB= -3211,-3181,-1423,-1453,599,608,  SURF_ID='0'/ 
&OBST XB= -3211,-3181,-1453,-1483,599,608,  SURF_ID='0'/ 
&OBST XB= -3211,-3181,-1483,-1513,599,609,  SURF_ID='0'/ 
&OBST XB= -3211,-3181,-1513,-1543,599,607,  SURF_ID='0'/ 
&OBST XB= -3211,-3181,-1543,-1573,599,607,  SURF_ID='0'/ 
&OBST XB= -3211,-3181,-1573,-1603,599,608,  SURF_ID='0'/ 
&OBST XB= -3211,-3181,-1603,-1633,599,608,  SURF_ID='0'/ 
&OBST XB= -3211,-3181,-1633,-1663,599,608,  SURF_ID='0'/ 
&OBST XB= -3211,-3181,-1663,-1693,599,609,  SURF_ID='0'/ 
&OBST XB= -3211,-3181,-1693,-1723,599,609,  SURF_ID='0'/ 
&OBST XB= -3211,-3181,-1723,-1753,599,608,  SURF_ID='0'/ 
&OBST XB= -3211,-3181,-1753,-1783,599,608,  SURF_ID='0'/ 
&OBST XB= -3211,-3181,-1783,-1813,599,610,  SURF_ID='0'/ 
&OBST XB= -3211,-3181,-1813,-1843,599,611,  SURF_ID='0'/ 
&OBST XB= -3211,-3181,-1843,-1873,599,616,  SURF_ID='8'/ 
&OBST XB= -3211,-3181,-1873,-1903,599,618,  SURF_ID='0'/ 
&OBST XB= -3211,-3181,-1903,-1933,599,622,  SURF_ID='0'/ 
&OBST XB= -3211,-3181,-1933,-1963,599,622,  SURF_ID='0'/ 
&OBST XB= -3211,-3181,-1963,-1993,599,625,  SURF_ID='9'/ 
&OBST XB= -3211,-3181,-1993,-2023,599,626,  SURF_ID='8'/ 
&OBST XB= -3211,-3181,-2023,-2053,599,635,  SURF_ID='9'/ 
&OBST XB= -3211,-3181,-2053,-2083,599,640,  SURF_ID='0'/ 
&OBST XB= -3211,-3181,-2083,-2113,599,642,  SURF_ID='0'/ 
&OBST XB= -3211,-3181,-2113,-2143,599,637,  SURF_ID='2'/ 
&OBST XB= -3211,-3181,-2143,-2173,599,631,  SURF_ID='9'/ 
&OBST XB= -3211,-3181,-2173,-2203,599,631,  SURF_ID='9'/ 
&OBST XB= -3211,-3181,-2203,-2233,599,631,  SURF_ID='9'/ 
&OBST XB= -3211,-3181,-2233,-2263,599,639,  SURF_ID='8'/ 
&OBST XB= -3211,-3181,-2263,-2293,599,642,  SURF_ID='8'/ 
&OBST XB= -3211,-3181,-2293,-2323,599,642,  SURF_ID='1'/ 
&OBST XB= -3211,-3181,-2323,-2353,599,641,  SURF_ID='0'/ 
&OBST XB= -3211,-3181,-2353,-2383,599,644,  SURF_ID='0'/ 
&OBST XB= -3211,-3181,-2383,-2413,599,653,  SURF_ID='0'/ 
&OBST XB= -3211,-3181,-2413,-2443,599,653,  SURF_ID='0'/ 
&OBST XB= -3211,-3181,-2443,-2473,599,653,  SURF_ID='9'/ 
&OBST XB= -3211,-3181,-2473,-2503,599,649,  SURF_ID='2'/ 
&OBST XB= -3211,-3181,-2503,-2533,599,651,  SURF_ID='0'/ 
&OBST XB= -3211,-3181,-2533,-2563,599,655,  SURF_ID='8'/ 
&OBST XB= -3211,-3181,-2563,-2593,599,656,  SURF_ID='8'/ 
&OBST XB= -3211,-3181,-2593,-2623,599,650,  SURF_ID='9'/ 
&OBST XB= -3211,-3181,-2623,-2653,599,637,  SURF_ID='9'/ 
&OBST XB= -3211,-3181,-2653,-2683,599,637,  SURF_ID='9'/ 
&OBST XB= -3211,-3181,-2683,-2713,599,647,  SURF_ID='9'/ 
&OBST XB= -3211,-3181,-2713,-2743,599,651,  SURF_ID='1'/ 
&OBST XB= -3211,-3181,-2743,-2773,599,649,  SURF_ID='0'/ 
&OBST XB= -3211,-3181,-2773,-2803,599,640,  SURF_ID='9'/ 
&OBST XB= -3211,-3181,-2803,-2833,599,629,  SURF_ID='9'/ 
&OBST XB= -3211,-3181,-2833,-2863,599,626,  SURF_ID='8'/ 
&OBST XB= -3211,-3181,-2863,-2893,599,636,  SURF_ID='8'/ 
&OBST XB= -3211,-3181,-2893,-2923,599,636,  SURF_ID='8'/ 
&OBST XB= -3211,-3181,-2923,-2953,599,642,  SURF_ID='2'/ 
&OBST XB= -3211,-3181,-2953,-2983,599,639,  SURF_ID='0'/ 
&OBST XB= -3211,-3181,-2983,-3013,599,634,  SURF_ID='0'/ 
&OBST XB= -3211,-3181,-3013,-3043,599,632,  SURF_ID='1'/ 
&OBST XB= -3211,-3181,-3043,-3073,599,626,  SURF_ID='9'/ 
&OBST XB= -3211,-3181,-3073,-3103,599,622,  SURF_ID='9'/ 
&OBST XB= -3211,-3181,-3103,-3133,599,623,  SURF_ID='2'/ 
&OBST XB= -3211,-3181,-3133,-3163,599,623,  SURF_ID='2'/ 
&OBST XB= -3211,-3181,-3163,-3193,599,624,  SURF_ID='0'/ 
&OBST XB= -3211,-3181,-3193,-3223,599,624,  SURF_ID='0'/ 
&OBST XB= -3211,-3181,-3223,-3253,599,627,  SURF_ID='0'/ 
&OBST XB= -3181,-3151,3227,3197,599,629,  SURF_ID='0'/ 
&OBST XB= -3181,-3151,3197,3167,599,627,  SURF_ID='8'/ 
&OBST XB= -3181,-3151,3167,3137,599,637,  SURF_ID='9'/ 
&OBST XB= -3181,-3151,3137,3107,599,646,  SURF_ID='0'/ 
&OBST XB= -3181,-3151,3107,3077,599,646,  SURF_ID='0'/ 
&OBST XB= -3181,-3151,3077,3047,599,644,  SURF_ID='2'/ 
&OBST XB= -3181,-3151,3047,3017,599,645,  SURF_ID='0'/ 
&OBST XB= -3181,-3151,3017,2987,599,648,  SURF_ID='9'/ 
&OBST XB= -3181,-3151,2987,2957,599,646,  SURF_ID='9'/ 
&OBST XB= -3181,-3151,2957,2927,599,645,  SURF_ID='9'/ 
&OBST XB= -3181,-3151,2927,2897,599,641,  SURF_ID='9'/ 
&OBST XB= -3181,-3151,2897,2867,599,629,  SURF_ID='9'/ 
&OBST XB= -3181,-3151,2867,2837,599,629,  SURF_ID='9'/ 
&OBST XB= -3181,-3151,2837,2807,599,629,  SURF_ID='9'/ 
&OBST XB= -3181,-3151,2807,2777,599,634,  SURF_ID='8'/ 
&OBST XB= -3181,-3151,2777,2747,599,637,  SURF_ID='0'/ 
&OBST XB= -3181,-3151,2747,2717,599,639,  SURF_ID='0'/ 
&OBST XB= -3181,-3151,2717,2687,599,636,  SURF_ID='1'/ 
&OBST XB= -3181,-3151,2687,2657,599,632,  SURF_ID='0'/ 
&OBST XB= -3181,-3151,2657,2627,599,630,  SURF_ID='0'/ 
&OBST XB= -3181,-3151,2627,2597,599,630,  SURF_ID='0'/ 
&OBST XB= -3181,-3151,2597,2567,599,639,  SURF_ID='9'/ 
&OBST XB= -3181,-3151,2567,2537,599,643,  SURF_ID='1'/ 
&OBST XB= -3181,-3151,2537,2507,599,643,  SURF_ID='1'/ 
&OBST XB= -3181,-3151,2507,2477,599,639,  SURF_ID='0'/ 
&OBST XB= -3181,-3151,2477,2447,599,632,  SURF_ID='0'/ 
&OBST XB= -3181,-3151,2447,2417,599,633,  SURF_ID='0'/ 
&OBST XB= -3181,-3151,2417,2387,599,635,  SURF_ID='0'/ 
&OBST XB= -3181,-3151,2387,2357,599,635,  SURF_ID='0'/ 
&OBST XB= -3181,-3151,2357,2327,599,637,  SURF_ID='0'/ 
&OBST XB= -3181,-3151,2327,2297,599,639,  SURF_ID='0'/ 
&OBST XB= -3181,-3151,2297,2267,599,640,  SURF_ID='0'/ 
&OBST XB= -3181,-3151,2267,2237,599,640,  SURF_ID='0'/ 
&OBST XB= -3181,-3151,2237,2207,599,638,  SURF_ID='0'/ 
&OBST XB= -3181,-3151,2207,2177,599,637,  SURF_ID='0'/ 
&OBST XB= -3181,-3151,2177,2147,599,636,  SURF_ID='0'/ 
&OBST XB= -3181,-3151,2147,2117,599,636,  SURF_ID='0'/ 
&OBST XB= -3181,-3151,2117,2087,599,635,  SURF_ID='0'/ 
&OBST XB= -3181,-3151,2087,2057,599,634,  SURF_ID='0'/ 
&OBST XB= -3181,-3151,2057,2027,599,628,  SURF_ID='0'/ 
&OBST XB= -3181,-3151,2027,1997,599,625,  SURF_ID='0'/ 
&OBST XB= -3181,-3151,1997,1967,599,629,  SURF_ID='0'/ 
&OBST XB= -3181,-3151,1967,1937,599,632,  SURF_ID='0'/ 
&OBST XB= -3181,-3151,1937,1907,599,630,  SURF_ID='8'/ 
&OBST XB= -3181,-3151,1907,1877,599,630,  SURF_ID='8'/ 
&OBST XB= -3181,-3151,1877,1847,599,624,  SURF_ID='8'/ 
&OBST XB= -3181,-3151,1847,1817,599,623,  SURF_ID='9'/ 
&OBST XB= -3181,-3151,1817,1787,599,615,  SURF_ID='9'/ 
&OBST XB= -3181,-3151,1787,1757,599,610,  SURF_ID='9'/ 
&OBST XB= -3181,-3151,1757,1727,599,609,  SURF_ID='0'/ 
&OBST XB= -3181,-3151,1727,1697,599,614,  SURF_ID='0'/ 
&OBST XB= -3181,-3151,1697,1667,599,619,  SURF_ID='8'/ 
&OBST XB= -3181,-3151,1667,1637,599,619,  SURF_ID='8'/ 
&OBST XB= -3181,-3151,1637,1607,599,616,  SURF_ID='9'/ 
&OBST XB= -3181,-3151,1607,1577,599,613,  SURF_ID='9'/ 
&OBST XB= -3181,-3151,1577,1547,599,613,  SURF_ID='8'/ 
&OBST XB= -3181,-3151,1547,1517,599,621,  SURF_ID='0'/ 
&OBST XB= -3181,-3151,1517,1487,599,628,  SURF_ID='9'/ 
&OBST XB= -3181,-3151,1487,1457,599,636,  SURF_ID='0'/ 
&OBST XB= -3181,-3151,1457,1427,599,635,  SURF_ID='1'/ 
&OBST XB= -3181,-3151,1427,1397,599,635,  SURF_ID='1'/ 
&OBST XB= -3181,-3151,1397,1367,599,632,  SURF_ID='2'/ 
&OBST XB= -3181,-3151,1367,1337,599,635,  SURF_ID='0'/ 
&OBST XB= -3181,-3151,1337,1307,599,639,  SURF_ID='1'/ 
&OBST XB= -3181,-3151,1307,1277,599,640,  SURF_ID='2'/ 
&OBST XB= -3181,-3151,1277,1247,599,640,  SURF_ID='2'/ 
&OBST XB= -3181,-3151,1247,1217,599,637,  SURF_ID='0'/ 
&OBST XB= -3181,-3151,1217,1187,599,632,  SURF_ID='0'/ 
&OBST XB= -3181,-3151,1187,1157,599,632,  SURF_ID='0'/ 
&OBST XB= -3181,-3151,1157,1127,599,636,  SURF_ID='0'/ 
&OBST XB= -3181,-3151,1127,1097,599,637,  SURF_ID='0'/ 
&OBST XB= -3181,-3151,1097,1067,599,634,  SURF_ID='0'/ 
&OBST XB= -3181,-3151,1067,1037,599,632,  SURF_ID='2'/ 