&HEAD  CHID='LoLo', Title='This is the Title ' / 

&TIME T_END=1.0 /

&DUMP WRITE_XYZ=.TRUE., DT_PL3D=0.1 /
&REAC FUEL='CELLULOSE', C=6, H=10, O=5, SOOT_YIELD=0.01, HEAT_OF_COMBUSTION=18607. /
&MISC LEVEL_SET_MODE=4 /

&VENT MB='XMIN' SURF_ID='OPEN' / 
&VENT MB='XMAX' SURF_ID='OPEN' / 
&VENT MB='YMIN' SURF_ID='OPEN' / 
&VENT MB='YMAX' SURF_ID='OPEN' / 
&VENT MB='ZMAX' SURF_ID='OPEN' / 


&SURF ID='1', VEG_LSET_FUEL_INDEX=1, RGB=255,254,222/
&SURF ID='2', VEG_LSET_FUEL_INDEX=2, RGB=255,253,102/
&SURF ID='3',  VEG_LSET_FUEL_INDEX=3, RGB= 236,212,99/
&SURF ID='4',  VEG_LSET_FUEL_INDEX=4, RGB=254,193,119/
&SURF ID='5', VEG_LSET_FUEL_INDEX=5, RGB=249, 197, 92/
&SURF ID='6',  VEG_LSET_FUEL_INDEX=6, RGB=217, 196, 152/
&SURF ID='7',  VEG_LSET_FUEL_INDEX=7, RGB=170, 155, 127/
&SURF ID='8',  VEG_LSET_FUEL_INDEX=8, RGB=229, 253, 214/
&SURF ID='9',  VEG_LSET_FUEL_INDEX=9, RGB=162, 191, 90/
&SURF ID='10', VEG_LSET_FUEL_INDEX=10, RGB=162, 191, 90/
&SURF ID='11',  VEG_LSET_FUEL_INDEX=11, RGB=235, 212, 253/
&SURF ID='12',  VEG_LSET_FUEL_INDEX=12, RGB=148,212,116/
&SURF ID='13',  VEG_LSET_FUEL_INDEX=13, RGB=88,212,102/
&SURF ID='0',  RGB=186, 119, 80/
&SURF ID='IGN FIRE', HRRPUA = 500, COLOR = 'RED', RAMP_Q = 'fire' /
&RAMP ID='fire', T=0, F=0. /
&RAMP ID='fire', T=1, F=1. /
&RAMP ID='fire', T=60, F=1. /
&RAMP ID='fire', T=61, F=0. /
&OBST XB=-2725.3012561379,-2675.3012561379,2740.9917671459843,2790.9917671459843,1100,1101,SURF_ID = 'IGN FIRE' /
&MULT ID="m1",DX=2164.8029532246455, DY=2156.113113796605, DZ=530.0, I_UPPER=2, J_UPPER=2, K_UPPER=0 /
&MESH IJK=17, 17, 50, XB=-3253.4170925279523, -1088.6141393033067, -3225.3012561379, -1069.1881423412951, 960, 1490.0, MULT_ID="m1" / 9 Mesh 
&OBST XB= -3225.3012561379,-3190.3372596979552,3240.9917671459843,3205.6960668216693,960,1091,  SURF_ID='2'/ 
&OBST XB= -3225.3012561379,-3190.3372596979552,3205.6960668216693,3170.4003664973548,960,1108,  SURF_ID='5'/ 
&OBST XB= -3225.3012561379,-3190.3372596979552,3170.4003664973548,3135.1046661730397,960,1120,  SURF_ID='2'/ 
&OBST XB= -3225.3012561379,-3190.3372596979552,3135.1046661730397,3099.8089658487247,960,1133,  SURF_ID='2'/ 
&OBST XB= -3225.3012561379,-3190.3372596979552,3099.8089658487247,3064.51326552441,960,1143,  SURF_ID='2'/ 
&OBST XB= -3225.3012561379,-3190.3372596979552,3064.51326552441,3029.217565200095,960,1155,  SURF_ID='2'/ 
&OBST XB= -3225.3012561379,-3190.3372596979552,3029.217565200095,2993.92186487578,960,1170,  SURF_ID='2'/ 
&OBST XB= -3225.3012561379,-3190.3372596979552,2993.92186487578,2958.6261645514655,960,1200,  SURF_ID='2'/ 
&OBST XB= -3225.3012561379,-3190.3372596979552,2958.6261645514655,2923.3304642271505,960,1209,  SURF_ID='8'/ 
&OBST XB= -3225.3012561379,-3190.3372596979552,2923.3304642271505,2888.0347639028355,960,1219,  SURF_ID='2'/ 
&OBST XB= -3225.3012561379,-3190.3372596979552,2888.0347639028355,2852.739063578521,960,1224,  SURF_ID='2'/ 
&OBST XB= -3225.3012561379,-3190.3372596979552,2852.739063578521,2817.443363254206,960,1225,  SURF_ID='2'/ 
&OBST XB= -3225.3012561379,-3190.3372596979552,2817.443363254206,2782.147662929891,960,1221,  SURF_ID='2'/ 
&OBST XB= -3225.3012561379,-3190.3372596979552,2782.147662929891,2746.8519626055763,960,1215,  SURF_ID='2'/ 
&OBST XB= -3225.3012561379,-3190.3372596979552,2746.8519626055763,2711.5562622812613,960,1205,  SURF_ID='2'/ 
&OBST XB= -3225.3012561379,-3190.3372596979552,2711.5562622812613,2676.2605619569463,960,1199,  SURF_ID='2'/ 
&OBST XB= -3225.3012561379,-3190.3372596979552,2676.2605619569463,2640.9648616326313,960,1191,  SURF_ID='2'/ 
&OBST XB= -3225.3012561379,-3190.3372596979552,2640.9648616326313,2605.6691613083167,960,1184,  SURF_ID='2'/ 
&OBST XB= -3225.3012561379,-3190.3372596979552,2605.6691613083167,2570.3734609840017,960,1179,  SURF_ID='2'/ 
&OBST XB= -3225.3012561379,-3190.3372596979552,2570.3734609840017,2535.0777606596866,960,1174,  SURF_ID='2'/ 
&OBST XB= -3225.3012561379,-3190.3372596979552,2535.0777606596866,2499.782060335372,960,1170,  SURF_ID='2'/ 
&OBST XB= -3225.3012561379,-3190.3372596979552,2499.782060335372,2464.486360011057,960,1170,  SURF_ID='2'/ 
&OBST XB= -3225.3012561379,-3190.3372596979552,2464.486360011057,2429.190659686742,960,1164,  SURF_ID='2'/ 
&OBST XB= -3225.3012561379,-3190.3372596979552,2429.190659686742,2393.8949593624275,960,1171,  SURF_ID='2'/ 
&OBST XB= -3225.3012561379,-3190.3372596979552,2393.8949593624275,2358.5992590381125,960,1174,  SURF_ID='8'/ 
&OBST XB= -3225.3012561379,-3190.3372596979552,2358.5992590381125,2323.3035587137974,960,1170,  SURF_ID='8'/ 
&OBST XB= -3225.3012561379,-3190.3372596979552,2323.3035587137974,2288.007858389483,960,1164,  SURF_ID='2'/ 
&OBST XB= -3225.3012561379,-3190.3372596979552,2288.007858389483,2252.712158065168,960,1152,  SURF_ID='2'/ 
&OBST XB= -3225.3012561379,-3190.3372596979552,2252.712158065168,2217.416457740853,960,1147,  SURF_ID='2'/ 
&OBST XB= -3225.3012561379,-3190.3372596979552,2217.416457740853,2182.1207574165383,960,1142,  SURF_ID='2'/ 
&OBST XB= -3225.3012561379,-3190.3372596979552,2182.1207574165383,2146.8250570922232,960,1138,  SURF_ID='2'/ 
&OBST XB= -3225.3012561379,-3190.3372596979552,2146.8250570922232,2111.529356767908,960,1142,  SURF_ID='2'/ 
&OBST XB= -3225.3012561379,-3190.3372596979552,2111.529356767908,2076.2336564435936,960,1138,  SURF_ID='2'/ 
&OBST XB= -3225.3012561379,-3190.3372596979552,2076.2336564435936,2040.9379561192786,960,1134,  SURF_ID='2'/ 
&OBST XB= -3225.3012561379,-3190.3372596979552,2040.9379561192786,2005.6422557949638,960,1115,  SURF_ID='2'/ 
&OBST XB= -3225.3012561379,-3190.3372596979552,2005.6422557949638,1970.346555470649,960,1105,  SURF_ID='2'/ 
&OBST XB= -3225.3012561379,-3190.3372596979552,1970.346555470649,1935.050855146334,960,1096,  SURF_ID='2'/ 
&OBST XB= -3225.3012561379,-3190.3372596979552,1935.050855146334,1899.7551548220192,960,1085,  SURF_ID='2'/ 
&OBST XB= -3225.3012561379,-3190.3372596979552,1899.7551548220192,1864.4594544977044,960,1077,  SURF_ID='2'/ 
&OBST XB= -3225.3012561379,-3190.3372596979552,1864.4594544977044,1829.1637541733894,960,1066,  SURF_ID='2'/ 
&OBST XB= -3225.3012561379,-3190.3372596979552,1829.1637541733894,1793.8680538490746,960,1056,  SURF_ID='9'/ 
&OBST XB= -3225.3012561379,-3190.3372596979552,1793.8680538490746,1758.5723535247598,960,1050,  SURF_ID='2'/ 
&OBST XB= -3225.3012561379,-3190.3372596979552,1758.5723535247598,1723.2766532004448,960,1050,  SURF_ID='2'/ 
&OBST XB= -3225.3012561379,-3190.3372596979552,1723.2766532004448,1687.98095287613,960,1048,  SURF_ID='2'/ 
&OBST XB= -3225.3012561379,-3190.3372596979552,1687.98095287613,1652.6852525518152,960,1047,  SURF_ID='2'/ 
&OBST XB= -3225.3012561379,-3190.3372596979552,1652.6852525518152,1617.3895522275002,960,1043,  SURF_ID='2'/ 
&OBST XB= -3225.3012561379,-3190.3372596979552,1617.3895522275002,1582.0938519031854,960,1039,  SURF_ID='2'/ 
&OBST XB= -3225.3012561379,-3190.3372596979552,1582.0938519031854,1546.7981515788706,960,1035,  SURF_ID='0'/ 
&OBST XB= -3225.3012561379,-3190.3372596979552,1546.7981515788706,1511.5024512545556,960,1033,  SURF_ID='0'/ 
&OBST XB= -3225.3012561379,-3190.3372596979552,1511.5024512545556,1476.2067509302408,960,1032,  SURF_ID='2'/ 
&OBST XB= -3225.3012561379,-3190.3372596979552,1476.2067509302408,1440.9110506059258,960,1028,  SURF_ID='2'/ 
&OBST XB= -3225.3012561379,-3190.3372596979552,1440.9110506059258,1405.615350281611,960,1025,  SURF_ID='2'/ 
&OBST XB= -3225.3012561379,-3190.3372596979552,1405.615350281611,1370.3196499572962,960,1025,  SURF_ID='0'/ 
&OBST XB= -3225.3012561379,-3190.3372596979552,1370.3196499572962,1335.0239496329812,960,1023,  SURF_ID='2'/ 
&OBST XB= -3225.3012561379,-3190.3372596979552,1335.0239496329812,1299.7282493086664,960,1025,  SURF_ID='2'/ 
&OBST XB= -3225.3012561379,-3190.3372596979552,1299.7282493086664,1264.4325489843516,960,1024,  SURF_ID='2'/ 
&OBST XB= -3225.3012561379,-3190.3372596979552,1264.4325489843516,1229.1368486600365,960,1021,  SURF_ID='2'/ 
&OBST XB= -3225.3012561379,-3190.3372596979552,1229.1368486600365,1193.8411483357218,960,1016,  SURF_ID='0'/ 
&OBST XB= -3225.3012561379,-3190.3372596979552,1193.8411483357218,1158.5454480114067,960,1007,  SURF_ID='0'/ 
&OBST XB= -3225.3012561379,-3190.3372596979552,1158.5454480114067,1123.2497476870922,960,1002,  SURF_ID='2'/ 
&OBST XB= -3225.3012561379,-3190.3372596979552,1123.2497476870922,1087.9540473627771,960,998,  SURF_ID='2'/ 
&OBST XB= -3225.3012561379,-3190.3372596979552,1087.9540473627771,1052.6583470384621,960,988,  SURF_ID='1'/ 
&OBST XB= -3225.3012561379,-3190.3372596979552,1052.6583470384621,1017.3626467141476,960,984,  SURF_ID='2'/ 
&OBST XB= -3225.3012561379,-3190.3372596979552,1017.3626467141476,982.0669463898325,960,983,  SURF_ID='2'/ 
&OBST XB= -3225.3012561379,-3190.3372596979552,982.0669463898325,946.7712460655175,960,989,  SURF_ID='0'/ 
&OBST XB= -3225.3012561379,-3190.3372596979552,946.7712460655175,911.475545741203,960,991,  SURF_ID='2'/ 
&OBST XB= -3225.3012561379,-3190.3372596979552,911.475545741203,876.1798454168879,960,989,  SURF_ID='2'/ 
&OBST XB= -3225.3012561379,-3190.3372596979552,876.1798454168879,840.8841450925729,960,980,  SURF_ID='0'/ 
&OBST XB= -3225.3012561379,-3190.3372596979552,840.8841450925729,805.5884447682583,960,975,  SURF_ID='0'/ 
&OBST XB= -3225.3012561379,-3190.3372596979552,805.5884447682583,770.2927444439433,960,972,  SURF_ID='0'/ 
&OBST XB= -3225.3012561379,-3190.3372596979552,770.2927444439433,734.9970441196283,960,969,  SURF_ID='0'/ 
&OBST XB= -3225.3012561379,-3190.3372596979552,734.9970441196283,699.7013437953137,960,967,  SURF_ID='0'/ 
&OBST XB= -3225.3012561379,-3190.3372596979552,699.7013437953137,664.4056434709987,960,966,  SURF_ID='0'/ 
&OBST XB= -3225.3012561379,-3190.3372596979552,664.4056434709987,629.1099431466837,960,964,  SURF_ID='0'/ 
&OBST XB= -3225.3012561379,-3190.3372596979552,629.1099431466837,593.8142428223691,960,961,  SURF_ID='8'/ 
&OBST XB= -3225.3012561379,-3190.3372596979552,593.8142428223691,558.5185424980541,960,963,  SURF_ID='5'/ 
&OBST XB= -3225.3012561379,-3190.3372596979552,558.5185424980541,523.2228421737391,960,961,  SURF_ID='2'/ 
&OBST XB= -3225.3012561379,-3190.3372596979552,523.2228421737391,487.9271418494245,960,961,  SURF_ID='2'/ 
&OBST XB= -3225.3012561379,-3190.3372596979552,487.9271418494245,452.6314415251095,960,961,  SURF_ID='2'/ 
&OBST XB= -3225.3012561379,-3190.3372596979552,452.6314415251095,417.3357412007945,960,961,  SURF_ID='2'/ 
&OBST XB= -3225.3012561379,-3190.3372596979552,417.3357412007945,382.0400408764799,960,961,  SURF_ID='2'/ 
&OBST XB= -3225.3012561379,-3190.3372596979552,382.0400408764799,346.7443405521649,960,961,  SURF_ID='8'/ 
&OBST XB= -3225.3012561379,-3190.3372596979552,346.7443405521649,311.44864022784986,960,961,  SURF_ID='8'/ 
&OBST XB= -3225.3012561379,-3190.3372596979552,311.44864022784986,276.1529399035353,960,961,  SURF_ID='8'/ 
&OBST XB= -3225.3012561379,-3190.3372596979552,276.1529399035353,240.85723957922028,960,961,  SURF_ID='8'/ 
&OBST XB= -3225.3012561379,-3190.3372596979552,240.85723957922028,205.56153925490526,960,961,  SURF_ID='2'/ 
&OBST XB= -3225.3012561379,-3190.3372596979552,205.56153925490526,170.2658389305907,960,961,  SURF_ID='2'/ 
&OBST XB= -3225.3012561379,-3190.3372596979552,170.2658389305907,134.97013860627567,960,961,  SURF_ID='2'/ 
&OBST XB= -3225.3012561379,-3190.3372596979552,134.97013860627567,99.67443828196065,960,961,  SURF_ID='2'/ 
&OBST XB= -3225.3012561379,-3190.3372596979552,99.67443828196065,64.37873795764608,960,961,  SURF_ID='0'/ 
&OBST XB= -3225.3012561379,-3190.3372596979552,64.37873795764608,29.08303763333106,960,961,  SURF_ID='0'/ 
&OBST XB= -3225.3012561379,-3190.3372596979552,29.08303763333106,-6.2126626909839615,960,961,  SURF_ID='0'/ 
&OBST XB= -3225.3012561379,-3190.3372596979552,-6.2126626909839615,-41.50836301529853,960,961,  SURF_ID='0'/ 
&OBST XB= -3225.3012561379,-3190.3372596979552,-41.50836301529853,-76.80406333961355,960,960,  SURF_ID='0'/ 
&OBST XB= -3225.3012561379,-3190.3372596979552,-76.80406333961355,-112.09976366392857,960,960,  SURF_ID='0'/ 
&OBST XB= -3225.3012561379,-3190.3372596979552,-112.09976366392857,-147.39546398824314,960,960,  SURF_ID='0'/ 
&OBST XB= -3225.3012561379,-3190.3372596979552,-147.39546398824314,-182.69116431255816,960,960,  SURF_ID='0'/ 
&OBST XB= -3225.3012561379,-3190.3372596979552,-182.69116431255816,-217.98686463687318,960,960,  SURF_ID='8'/ 
&OBST XB= -3225.3012561379,-3190.3372596979552,-217.98686463687318,-253.2825649611882,960,960,  SURF_ID='0'/ 
&OBST XB= -3225.3012561379,-3190.3372596979552,-253.2825649611882,-288.57826528550277,960,960,  SURF_ID='2'/ 
&OBST XB= -3225.3012561379,-3190.3372596979552,-288.57826528550277,-323.8739656098178,960,960,  SURF_ID='0'/ 
&OBST XB= -3225.3012561379,-3190.3372596979552,-323.8739656098178,-359.1696659341328,960,960,  SURF_ID='3'/ 
&OBST XB= -3225.3012561379,-3190.3372596979552,-359.1696659341328,-394.4653662584474,960,960,  SURF_ID='2'/ 
&OBST XB= -3225.3012561379,-3190.3372596979552,-394.4653662584474,-429.7610665827624,960,960,  SURF_ID='8'/ 
&OBST XB= -3225.3012561379,-3190.3372596979552,-429.7610665827624,-465.0567669070774,960,960,  SURF_ID='8'/ 
&OBST XB= -3225.3012561379,-3190.3372596979552,-465.0567669070774,-500.352467231392,960,960,  SURF_ID='2'/ 
&OBST XB= -3225.3012561379,-3190.3372596979552,-500.352467231392,-535.648167555707,960,960,  SURF_ID='8'/ 
&OBST XB= -3225.3012561379,-3190.3372596979552,-535.648167555707,-570.943867880022,960,960,  SURF_ID='8'/ 
&OBST XB= -3225.3012561379,-3190.3372596979552,-570.943867880022,-606.2395682043366,960,960,  SURF_ID='2'/ 
&OBST XB= -3225.3012561379,-3190.3372596979552,-606.2395682043366,-641.5352685286516,960,960,  SURF_ID='2'/ 
&OBST XB= -3225.3012561379,-3190.3372596979552,-641.5352685286516,-676.8309688529666,960,960,  SURF_ID='0'/ 
&OBST XB= -3225.3012561379,-3190.3372596979552,-676.8309688529666,-712.1266691772812,960,961,  SURF_ID='0'/ 
&OBST XB= -3225.3012561379,-3190.3372596979552,-712.1266691772812,-747.4223695015962,960,961,  SURF_ID='0'/ 
&OBST XB= -3225.3012561379,-3190.3372596979552,-747.4223695015962,-782.7180698259112,960,962,  SURF_ID='0'/ 
&OBST XB= -3225.3012561379,-3190.3372596979552,-782.7180698259112,-818.0137701502258,960,963,  SURF_ID='2'/ 
&OBST XB= -3225.3012561379,-3190.3372596979552,-818.0137701502258,-853.3094704745408,960,964,  SURF_ID='5'/ 
&OBST XB= -3225.3012561379,-3190.3372596979552,-853.3094704745408,-888.6051707988554,960,965,  SURF_ID='2'/ 
&OBST XB= -3225.3012561379,-3190.3372596979552,-888.6051707988554,-923.9008711231709,960,966,  SURF_ID='2'/ 
&OBST XB= -3225.3012561379,-3190.3372596979552,-923.9008711231709,-959.1965714474854,960,967,  SURF_ID='2'/ 
&OBST XB= -3225.3012561379,-3190.3372596979552,-959.1965714474854,-994.4922717718,960,968,  SURF_ID='2'/ 
&OBST XB= -3225.3012561379,-3190.3372596979552,-994.4922717718,-1029.7879720961155,960,968,  SURF_ID='8'/ 
&OBST XB= -3225.3012561379,-3190.3372596979552,-1029.7879720961155,-1065.08367242043,960,971,  SURF_ID='2'/ 
&OBST XB= -3225.3012561379,-3190.3372596979552,-1065.08367242043,-1100.3793727447446,960,981,  SURF_ID='9'/ 
&OBST XB= -3225.3012561379,-3190.3372596979552,-1100.3793727447446,-1135.67507306906,960,992,  SURF_ID='9'/ 
&OBST XB= -3225.3012561379,-3190.3372596979552,-1135.67507306906,-1170.9707733933747,960,1000,  SURF_ID='2'/ 
&OBST XB= -3225.3012561379,-3190.3372596979552,-1170.9707733933747,-1206.2664737176892,960,1002,  SURF_ID='2'/ 
&OBST XB= -3225.3012561379,-3190.3372596979552,-1206.2664737176892,-1241.5621740420047,960,1006,  SURF_ID='8'/ 
&OBST XB= -3225.3012561379,-3190.3372596979552,-1241.5621740420047,-1276.8578743663193,960,1017,  SURF_ID='9'/ 
&OBST XB= -3225.3012561379,-3190.3372596979552,-1276.8578743663193,-1312.1535746906338,960,1037,  SURF_ID='9'/ 
&OBST XB= -3225.3012561379,-3190.3372596979552,-1312.1535746906338,-1347.4492750149493,960,1047,  SURF_ID='9'/ 
&OBST XB= -3225.3012561379,-3190.3372596979552,-1347.4492750149493,-1382.7449753392639,960,1058,  SURF_ID='8'/ 
&OBST XB= -3225.3012561379,-3190.3372596979552,-1382.7449753392639,-1418.0406756635784,960,1081,  SURF_ID='8'/ 
&OBST XB= -3225.3012561379,-3190.3372596979552,-1418.0406756635784,-1453.336375987894,960,1090,  SURF_ID='8'/ 
&OBST XB= -3225.3012561379,-3190.3372596979552,-1453.336375987894,-1488.6320763122085,960,1099,  SURF_ID='8'/ 
&OBST XB= -3225.3012561379,-3190.3372596979552,-1488.6320763122085,-1523.927776636523,960,1106,  SURF_ID='8'/ 
&OBST XB= -3225.3012561379,-3190.3372596979552,-1523.927776636523,-1559.2234769608385,960,1134,  SURF_ID='8'/ 
&OBST XB= -3225.3012561379,-3190.3372596979552,-1559.2234769608385,-1594.519177285153,960,1139,  SURF_ID='5'/ 
&OBST XB= -3225.3012561379,-3190.3372596979552,-1594.519177285153,-1629.8148776094677,960,1145,  SURF_ID='8'/ 
&OBST XB= -3225.3012561379,-3190.3372596979552,-1629.8148776094677,-1665.1105779337831,960,1149,  SURF_ID='8'/ 
&OBST XB= -3225.3012561379,-3190.3372596979552,-1665.1105779337831,-1700.4062782580977,960,1154,  SURF_ID='5'/ 
&OBST XB= -3225.3012561379,-3190.3372596979552,-1700.4062782580977,-1735.7019785824123,960,1173,  SURF_ID='8'/ 
&OBST XB= -3225.3012561379,-3190.3372596979552,-1735.7019785824123,-1770.9976789067277,960,1176,  SURF_ID='8'/ 
&OBST XB= -3225.3012561379,-3190.3372596979552,-1770.9976789067277,-1806.2933792310423,960,1180,  SURF_ID='5'/ 
&OBST XB= -3225.3012561379,-3190.3372596979552,-1806.2933792310423,-1841.5890795553569,960,1179,  SURF_ID='5'/ 
&OBST XB= -3225.3012561379,-3190.3372596979552,-1841.5890795553569,-1876.8847798796724,960,1189,  SURF_ID='5'/ 
&OBST XB= -3225.3012561379,-3190.3372596979552,-1876.8847798796724,-1912.180480203987,960,1187,  SURF_ID='5'/ 
&OBST XB= -3225.3012561379,-3190.3372596979552,-1912.180480203987,-1947.4761805283015,960,1183,  SURF_ID='5'/ 
&OBST XB= -3225.3012561379,-3190.3372596979552,-1947.4761805283015,-1982.771880852617,960,1177,  SURF_ID='8'/ 
&OBST XB= -3225.3012561379,-3190.3372596979552,-1982.771880852617,-2018.0675811769315,960,1167,  SURF_ID='8'/ 
&OBST XB= -3225.3012561379,-3190.3372596979552,-2018.0675811769315,-2053.363281501246,960,1173,  SURF_ID='8'/ 
&OBST XB= -3225.3012561379,-3190.3372596979552,-2053.363281501246,-2088.6589818255616,960,1169,  SURF_ID='5'/ 
&OBST XB= -3225.3012561379,-3190.3372596979552,-2088.6589818255616,-2123.954682149876,960,1165,  SURF_ID='8'/ 
&OBST XB= -3225.3012561379,-3190.3372596979552,-2123.954682149876,-2159.2503824741907,960,1166,  SURF_ID='2'/ 
&OBST XB= -3225.3012561379,-3190.3372596979552,-2159.2503824741907,-2194.546082798506,960,1177,  SURF_ID='2'/ 
&OBST XB= -3225.3012561379,-3190.3372596979552,-2194.546082798506,-2229.8417831228207,960,1191,  SURF_ID='2'/ 
&OBST XB= -3225.3012561379,-3190.3372596979552,-2229.8417831228207,-2265.1374834471353,960,1208,  SURF_ID='2'/ 
&OBST XB= -3225.3012561379,-3190.3372596979552,-2265.1374834471353,-2300.433183771451,960,1215,  SURF_ID='2'/ 
&OBST XB= -3225.3012561379,-3190.3372596979552,-2300.433183771451,-2335.7288840957654,960,1222,  SURF_ID='8'/ 
&OBST XB= -3225.3012561379,-3190.3372596979552,-2335.7288840957654,-2371.02458442008,960,1236,  SURF_ID='2'/ 
&OBST XB= -3225.3012561379,-3190.3372596979552,-2371.02458442008,-2406.3202847443954,960,1243,  SURF_ID='2'/ 
&OBST XB= -3225.3012561379,-3190.3372596979552,-2406.3202847443954,-2441.61598506871,960,1252,  SURF_ID='2'/ 
&OBST XB= -3225.3012561379,-3190.3372596979552,-2441.61598506871,-2476.9116853930245,960,1261,  SURF_ID='2'/ 
&OBST XB= -3225.3012561379,-3190.3372596979552,-2476.9116853930245,-2512.20738571734,960,1287,  SURF_ID='2'/ 
&OBST XB= -3225.3012561379,-3190.3372596979552,-2512.20738571734,-2547.5030860416546,960,1295,  SURF_ID='2'/ 
&OBST XB= -3225.3012561379,-3190.3372596979552,-2547.5030860416546,-2582.798786365969,960,1303,  SURF_ID='8'/ 
&OBST XB= -3225.3012561379,-3190.3372596979552,-2582.798786365969,-2618.0944866902846,960,1311,  SURF_ID='8'/ 
&OBST XB= -3225.3012561379,-3190.3372596979552,-2618.0944866902846,-2653.390187014599,960,1321,  SURF_ID='2'/ 
&OBST XB= -3225.3012561379,-3190.3372596979552,-2653.390187014599,-2688.6858873389137,960,1340,  SURF_ID='2'/ 
&OBST XB= -3225.3012561379,-3190.3372596979552,-2688.6858873389137,-2723.981587663229,960,1350,  SURF_ID='2'/ 
&OBST XB= -3225.3012561379,-3190.3372596979552,-2723.981587663229,-2759.277287987544,960,1368,  SURF_ID='2'/ 
&OBST XB= -3225.3012561379,-3190.3372596979552,-2759.277287987544,-2794.5729883118584,960,1374,  SURF_ID='2'/ 
&OBST XB= -3225.3012561379,-3190.3372596979552,-2794.5729883118584,-2829.868688636174,960,1372,  SURF_ID='2'/ 
&OBST XB= -3225.3012561379,-3190.3372596979552,-2829.868688636174,-2865.1643889604884,960,1374,  SURF_ID='2'/ 
&OBST XB= -3225.3012561379,-3190.3372596979552,-2865.1643889604884,-2900.460089284803,960,1374,  SURF_ID='2'/ 
&OBST XB= -3225.3012561379,-3190.3372596979552,-2900.460089284803,-2935.7557896091184,960,1369,  SURF_ID='2'/ 
&OBST XB= -3225.3012561379,-3190.3372596979552,-2935.7557896091184,-2971.051489933433,960,1345,  SURF_ID='8'/ 
&OBST XB= -3225.3012561379,-3190.3372596979552,-2971.051489933433,-3006.3471902577476,960,1338,  SURF_ID='8'/ 
&OBST XB= -3225.3012561379,-3190.3372596979552,-3006.3471902577476,-3041.642890582063,960,1323,  SURF_ID='8'/ 
&OBST XB= -3225.3012561379,-3190.3372596979552,-3041.642890582063,-3076.9385909063776,960,1310,  SURF_ID='8'/ 
&OBST XB= -3225.3012561379,-3190.3372596979552,-3076.9385909063776,-3112.234291230692,960,1300,  SURF_ID='8'/ 
&OBST XB= -3225.3012561379,-3190.3372596979552,-3112.234291230692,-3147.5299915550077,960,1299,  SURF_ID='8'/ 
&OBST XB= -3225.3012561379,-3190.3372596979552,-3147.5299915550077,-3182.825691879322,960,1282,  SURF_ID='8'/ 
&OBST XB= -3225.3012561379,-3190.3372596979552,-3182.825691879322,-3218.121392203637,960,1255,  SURF_ID='8'/ 
&OBST XB= -3225.3012561379,-3190.3372596979552,-3218.121392203637,-3253.4170925279523,960,1241,  SURF_ID='8'/ 
&OBST XB= -3225.3012561379,-3190.3372596979552,-3253.4170925279523,-3288.712792852267,960,1236,  SURF_ID='8'/ 
&OBST XB= -3190.3372596979552,-3155.37326325801,3240.9917671459843,3205.6960668216693,960,1095,  SURF_ID='2'/ 
&OBST XB= -3190.3372596979552,-3155.37326325801,3205.6960668216693,3170.4003664973548,960,1086,  SURF_ID='2'/ 
&OBST XB= -3190.3372596979552,-3155.37326325801,3170.4003664973548,3135.1046661730397,960,1117,  SURF_ID='2'/ 
&OBST XB= -3190.3372596979552,-3155.37326325801,3135.1046661730397,3099.8089658487247,960,1125,  SURF_ID='2'/ 
&OBST XB= -3190.3372596979552,-3155.37326325801,3099.8089658487247,3064.51326552441,960,1140,  SURF_ID='2'/ 
&OBST XB= -3190.3372596979552,-3155.37326325801,3064.51326552441,3029.217565200095,960,1152,  SURF_ID='2'/ 
&OBST XB= -3190.3372596979552,-3155.37326325801,3029.217565200095,2993.92186487578,960,1167,  SURF_ID='2'/ 
&OBST XB= -3190.3372596979552,-3155.37326325801,2993.92186487578,2958.6261645514655,960,1181,  SURF_ID='2'/ 
&OBST XB= -3190.3372596979552,-3155.37326325801,2958.6261645514655,2923.3304642271505,960,1204,  SURF_ID='8'/ 
&OBST XB= -3190.3372596979552,-3155.37326325801,2923.3304642271505,2888.0347639028355,960,1215,  SURF_ID='2'/ 
&OBST XB= -3190.3372596979552,-3155.37326325801,2888.0347639028355,2852.739063578521,960,1220,  SURF_ID='2'/ 
&OBST XB= -3190.3372596979552,-3155.37326325801,2852.739063578521,2817.443363254206,960,1220,  SURF_ID='2'/ 
&OBST XB= -3190.3372596979552,-3155.37326325801,2817.443363254206,2782.147662929891,960,1214,  SURF_ID='2'/ 
&OBST XB= -3190.3372596979552,-3155.37326325801,2782.147662929891,2746.8519626055763,960,1212,  SURF_ID='2'/ 
&OBST XB= -3190.3372596979552,-3155.37326325801,2746.8519626055763,2711.5562622812613,960,1208,  SURF_ID='2'/ 
&OBST XB= -3190.3372596979552,-3155.37326325801,2711.5562622812613,2676.2605619569463,960,1196,  SURF_ID='2'/ 
&OBST XB= -3190.3372596979552,-3155.37326325801,2676.2605619569463,2640.9648616326313,960,1189,  SURF_ID='2'/ 
&OBST XB= -3190.3372596979552,-3155.37326325801,2640.9648616326313,2605.6691613083167,960,1181,  SURF_ID='2'/ 
&OBST XB= -3190.3372596979552,-3155.37326325801,2605.6691613083167,2570.3734609840017,960,1176,  SURF_ID='2'/ 
&OBST XB= -3190.3372596979552,-3155.37326325801,2570.3734609840017,2535.0777606596866,960,1170,  SURF_ID='2'/ 
&OBST XB= -3190.3372596979552,-3155.37326325801,2535.0777606596866,2499.782060335372,960,1165,  SURF_ID='2'/ 
&OBST XB= -3190.3372596979552,-3155.37326325801,2499.782060335372,2464.486360011057,960,1157,  SURF_ID='2'/ 
&OBST XB= -3190.3372596979552,-3155.37326325801,2464.486360011057,2429.190659686742,960,1157,  SURF_ID='2'/ 
&OBST XB= -3190.3372596979552,-3155.37326325801,2429.190659686742,2393.8949593624275,960,1164,  SURF_ID='2'/ 
&OBST XB= -3190.3372596979552,-3155.37326325801,2393.8949593624275,2358.5992590381125,960,1172,  SURF_ID='2'/ 
&OBST XB= -3190.3372596979552,-3155.37326325801,2358.5992590381125,2323.3035587137974,960,1173,  SURF_ID='2'/ 
&OBST XB= -3190.3372596979552,-3155.37326325801,2323.3035587137974,2288.007858389483,960,1158,  SURF_ID='2'/ 
&OBST XB= -3190.3372596979552,-3155.37326325801,2288.007858389483,2252.712158065168,960,1155,  SURF_ID='2'/ 
&OBST XB= -3190.3372596979552,-3155.37326325801,2252.712158065168,2217.416457740853,960,1155,  SURF_ID='2'/ 
&OBST XB= -3190.3372596979552,-3155.37326325801,2217.416457740853,2182.1207574165383,960,1150,  SURF_ID='2'/ 
&OBST XB= -3190.3372596979552,-3155.37326325801,2182.1207574165383,2146.8250570922232,960,1151,  SURF_ID='2'/ 
&OBST XB= -3190.3372596979552,-3155.37326325801,2146.8250570922232,2111.529356767908,960,1146,  SURF_ID='2'/ 
&OBST XB= -3190.3372596979552,-3155.37326325801,2111.529356767908,2076.2336564435936,960,1140,  SURF_ID='2'/ 
&OBST XB= -3190.3372596979552,-3155.37326325801,2076.2336564435936,2040.9379561192786,960,1134,  SURF_ID='0'/ 
&OBST XB= -3190.3372596979552,-3155.37326325801,2040.9379561192786,2005.6422557949638,960,1125,  SURF_ID='2'/ 
&OBST XB= -3190.3372596979552,-3155.37326325801,2005.6422557949638,1970.346555470649,960,1104,  SURF_ID='2'/ 
&OBST XB= -3190.3372596979552,-3155.37326325801,1970.346555470649,1935.050855146334,960,1095,  SURF_ID='2'/ 
&OBST XB= -3190.3372596979552,-3155.37326325801,1935.050855146334,1899.7551548220192,960,1083,  SURF_ID='2'/ 
&OBST XB= -3190.3372596979552,-3155.37326325801,1899.7551548220192,1864.4594544977044,960,1073,  SURF_ID='2'/ 
&OBST XB= -3190.3372596979552,-3155.37326325801,1864.4594544977044,1829.1637541733894,960,1061,  SURF_ID='9'/ 
&OBST XB= -3190.3372596979552,-3155.37326325801,1829.1637541733894,1793.8680538490746,960,1054,  SURF_ID='9'/ 
&OBST XB= -3190.3372596979552,-3155.37326325801,1793.8680538490746,1758.5723535247598,960,1052,  SURF_ID='9'/ 
&OBST XB= -3190.3372596979552,-3155.37326325801,1758.5723535247598,1723.2766532004448,960,1052,  SURF_ID='2'/ 
&OBST XB= -3190.3372596979552,-3155.37326325801,1723.2766532004448,1687.98095287613,960,1050,  SURF_ID='2'/ 
&OBST XB= -3190.3372596979552,-3155.37326325801,1687.98095287613,1652.6852525518152,960,1049,  SURF_ID='2'/ 
&OBST XB= -3190.3372596979552,-3155.37326325801,1652.6852525518152,1617.3895522275002,960,1045,  SURF_ID='2'/ 
&OBST XB= -3190.3372596979552,-3155.37326325801,1617.3895522275002,1582.0938519031854,960,1042,  SURF_ID='2'/ 
&OBST XB= -3190.3372596979552,-3155.37326325801,1582.0938519031854,1546.7981515788706,960,1038,  SURF_ID='2'/ 
&OBST XB= -3190.3372596979552,-3155.37326325801,1546.7981515788706,1511.5024512545556,960,1037,  SURF_ID='0'/ 
&OBST XB= -3190.3372596979552,-3155.37326325801,1511.5024512545556,1476.2067509302408,960,1031,  SURF_ID='2'/ 
&OBST XB= -3190.3372596979552,-3155.37326325801,1476.2067509302408,1440.9110506059258,960,1026,  SURF_ID='2'/ 
&OBST XB= -3190.3372596979552,-3155.37326325801,1440.9110506059258,1405.615350281611,960,1023,  SURF_ID='2'/ 
&OBST XB= -3190.3372596979552,-3155.37326325801,1405.615350281611,1370.3196499572962,960,1021,  SURF_ID='2'/ 
&OBST XB= -3190.3372596979552,-3155.37326325801,1370.3196499572962,1335.0239496329812,960,1015,  SURF_ID='2'/ 
&OBST XB= -3190.3372596979552,-3155.37326325801,1335.0239496329812,1299.7282493086664,960,1018,  SURF_ID='2'/ 
&OBST XB= -3190.3372596979552,-3155.37326325801,1299.7282493086664,1264.4325489843516,960,1018,  SURF_ID='2'/ 
&OBST XB= -3190.3372596979552,-3155.37326325801,1264.4325489843516,1229.1368486600365,960,1015,  SURF_ID='2'/ 
&OBST XB= -3190.3372596979552,-3155.37326325801,1229.1368486600365,1193.8411483357218,960,1005,  SURF_ID='2'/ 
&OBST XB= -3190.3372596979552,-3155.37326325801,1193.8411483357218,1158.5454480114067,960,1001,  SURF_ID='2'/ 
&OBST XB= -3190.3372596979552,-3155.37326325801,1158.5454480114067,1123.2497476870922,960,998,  SURF_ID='2'/ 
&OBST XB= -3190.3372596979552,-3155.37326325801,1123.2497476870922,1087.9540473627771,960,995,  SURF_ID='2'/ 
&OBST XB= -3190.3372596979552,-3155.37326325801,1087.9540473627771,1052.6583470384621,960,991,  SURF_ID='1'/ 
&OBST XB= -3190.3372596979552,-3155.37326325801,1052.6583470384621,1017.3626467141476,960,982,  SURF_ID='2'/ 
&OBST XB= -3190.3372596979552,-3155.37326325801,1017.3626467141476,982.0669463898325,960,981,  SURF_ID='1'/ 
&OBST XB= -3190.3372596979552,-3155.37326325801,982.0669463898325,946.7712460655175,960,983,  SURF_ID='0'/ 
&OBST XB= -3190.3372596979552,-3155.37326325801,946.7712460655175,911.475545741203,960,985,  SURF_ID='0'/ 
&OBST XB= -3190.3372596979552,-3155.37326325801,911.475545741203,876.1798454168879,960,979,  SURF_ID='2'/ 
&OBST XB= -3190.3372596979552,-3155.37326325801,876.1798454168879,840.8841450925729,960,976,  SURF_ID='2'/ 
&OBST XB= -3190.3372596979552,-3155.37326325801,840.8841450925729,805.5884447682583,960,975,  SURF_ID='0'/ 
&OBST XB= -3190.3372596979552,-3155.37326325801,805.5884447682583,770.2927444439433,960,971,  SURF_ID='0'/ 
&OBST XB= -3190.3372596979552,-3155.37326325801,770.2927444439433,734.9970441196283,960,969,  SURF_ID='0'/ 
&OBST XB= -3190.3372596979552,-3155.37326325801,734.9970441196283,699.7013437953137,960,967,  SURF_ID='0'/ 
&OBST XB= -3190.3372596979552,-3155.37326325801,699.7013437953137,664.4056434709987,960,966,  SURF_ID='0'/ 