&HEAD  CHID='LoLo', Title='This is the Title ' / 

&TIME T_END=1.0 /

&DUMP WRITE_XYZ=.TRUE., DT_PL3D=0.1 /

&MESH IJK=185,184,100,XB=0,970734,0,970695,960,2000/ 

&OBST XB= 0,5219,0,5247,0,1091 /
&OBST XB= 0,5219,5247,10494,0,1108 /
&OBST XB= 0,5219,10494,15741,0,1120 /
&OBST XB= 0,5219,15741,20988,0,1133 /
&OBST XB= 0,5219,20988,26235,0,1143 /
&OBST XB= 0,5219,26235,31482,0,1155 /
&OBST XB= 0,5219,31482,36729,0,1170 /
&OBST XB= 0,5219,36729,41976,0,1200 /
&OBST XB= 0,5219,41976,47223,0,1209 /
&OBST XB= 0,5219,47223,52470,0,1219 /
&OBST XB= 0,5219,52470,57717,0,1224 /
&OBST XB= 0,5219,57717,62964,0,1225 /
&OBST XB= 0,5219,62964,68211,0,1221 /
&OBST XB= 0,5219,68211,73458,0,1215 /
&OBST XB= 0,5219,73458,78705,0,1205 /
&OBST XB= 0,5219,78705,83952,0,1199 /
&OBST XB= 0,5219,83952,89199,0,1191 /
&OBST XB= 0,5219,89199,94446,0,1184 /
&OBST XB= 0,5219,94446,99693,0,1179 /
&OBST XB= 0,5219,99693,104940,0,1174 /
&OBST XB= 0,5219,104940,110187,0,1170 /
&OBST XB= 0,5219,110187,115434,0,1170 /
&OBST XB= 0,5219,115434,120681,0,1164 /
&OBST XB= 0,5219,120681,125928,0,1171 /
&OBST XB= 0,5219,125928,131175,0,1174 /
&OBST XB= 0,5219,131175,136422,0,1170 /
&OBST XB= 0,5219,136422,141669,0,1164 /
&OBST XB= 0,5219,141669,146916,0,1152 /
&OBST XB= 0,5219,146916,152163,0,1147 /
&OBST XB= 0,5219,152163,157410,0,1142 /
&OBST XB= 0,5219,157410,162657,0,1138 /
&OBST XB= 0,5219,162657,167904,0,1142 /
&OBST XB= 0,5219,167904,173151,0,1138 /
&OBST XB= 0,5219,173151,178398,0,1134 /
&OBST XB= 0,5219,178398,183645,0,1115 /
&OBST XB= 0,5219,183645,188892,0,1105 /
&OBST XB= 0,5219,188892,194139,0,1096 /
&OBST XB= 0,5219,194139,199386,0,1085 /
&OBST XB= 0,5219,199386,204633,0,1077 /
&OBST XB= 0,5219,204633,209880,0,1066 /
&OBST XB= 0,5219,209880,215127,0,1056 /
&OBST XB= 0,5219,215127,220374,0,1050 /
&OBST XB= 0,5219,220374,225621,0,1050 /
&OBST XB= 0,5219,225621,230868,0,1048 /
&OBST XB= 0,5219,230868,236115,0,1047 /
&OBST XB= 0,5219,236115,241362,0,1043 /
&OBST XB= 0,5219,241362,246609,0,1039 /
&OBST XB= 0,5219,246609,251856,0,1035 /
&OBST XB= 0,5219,251856,257103,0,1033 /
&OBST XB= 0,5219,257103,262350,0,1032 /
&OBST XB= 0,5219,262350,267597,0,1028 /
&OBST XB= 0,5219,267597,272844,0,1025 /
&OBST XB= 0,5219,272844,278091,0,1025 /
&OBST XB= 0,5219,278091,283338,0,1023 /
&OBST XB= 0,5219,283338,288585,0,1025 /
&OBST XB= 0,5219,288585,293832,0,1024 /
&OBST XB= 0,5219,293832,299079,0,1021 /
&OBST XB= 0,5219,299079,304326,0,1016 /
&OBST XB= 0,5219,304326,309573,0,1007 /
&OBST XB= 0,5219,309573,314820,0,1002 /
&OBST XB= 0,5219,314820,320067,0,998 /
&OBST XB= 0,5219,320067,325314,0,988 /
&OBST XB= 0,5219,325314,330561,0,984 /
&OBST XB= 0,5219,330561,335808,0,983 /
&OBST XB= 0,5219,335808,341055,0,989 /
&OBST XB= 0,5219,341055,346302,0,991 /
&OBST XB= 0,5219,346302,351549,0,989 /
&OBST XB= 0,5219,351549,356796,0,980 /
&OBST XB= 0,5219,356796,362043,0,975 /
&OBST XB= 0,5219,362043,367290,0,972 /
&OBST XB= 0,5219,367290,372537,0,969 /
&OBST XB= 0,5219,372537,377784,0,967 /
&OBST XB= 0,5219,377784,383031,0,966 /
&OBST XB= 0,5219,383031,388278,0,964 /
&OBST XB= 0,5219,388278,393525,0,961 /
&OBST XB= 0,5219,393525,398772,0,963 /
&OBST XB= 0,5219,398772,404019,0,961 /
&OBST XB= 0,5219,404019,409266,0,961 /
&OBST XB= 0,5219,409266,414513,0,961 /
&OBST XB= 0,5219,414513,419760,0,961 /
&OBST XB= 0,5219,419760,425007,0,961 /
&OBST XB= 0,5219,425007,430254,0,961 /
&OBST XB= 0,5219,430254,435501,0,961 /
&OBST XB= 0,5219,435501,440748,0,961 /
&OBST XB= 0,5219,440748,445995,0,961 /
&OBST XB= 0,5219,445995,451242,0,961 /
&OBST XB= 0,5219,451242,456489,0,961 /
&OBST XB= 0,5219,456489,461736,0,961 /
&OBST XB= 0,5219,461736,466983,0,961 /
&OBST XB= 0,5219,466983,472230,0,961 /
&OBST XB= 0,5219,472230,477477,0,961 /
&OBST XB= 0,5219,477477,482724,0,961 /
&OBST XB= 0,5219,482724,487971,0,961 /
&OBST XB= 0,5219,487971,493218,0,960 /
&OBST XB= 0,5219,493218,498465,0,960 /
&OBST XB= 0,5219,498465,503712,0,960 /
&OBST XB= 0,5219,503712,508959,0,960 /
&OBST XB= 0,5219,508959,514206,0,960 /
&OBST XB= 0,5219,514206,519453,0,960 /
&OBST XB= 0,5219,519453,524700,0,960 /
&OBST XB= 0,5219,524700,529947,0,960 /
&OBST XB= 0,5219,529947,535194,0,960 /
&OBST XB= 0,5219,535194,540441,0,960 /
&OBST XB= 0,5219,540441,545688,0,960 /
&OBST XB= 0,5219,545688,550935,0,960 /
&OBST XB= 0,5219,550935,556182,0,960 /
&OBST XB= 0,5219,556182,561429,0,960 /
&OBST XB= 0,5219,561429,566676,0,960 /
&OBST XB= 0,5219,566676,571923,0,960 /
&OBST XB= 0,5219,571923,577170,0,960 /
&OBST XB= 0,5219,577170,582417,0,960 /
&OBST XB= 0,5219,582417,587664,0,961 /
&OBST XB= 0,5219,587664,592911,0,961 /
&OBST XB= 0,5219,592911,598158,0,962 /
&OBST XB= 0,5219,598158,603405,0,963 /
&OBST XB= 0,5219,603405,608652,0,964 /
&OBST XB= 0,5219,608652,613899,0,965 /
&OBST XB= 0,5219,613899,619146,0,966 /
&OBST XB= 0,5219,619146,624393,0,967 /
&OBST XB= 0,5219,624393,629640,0,968 /
&OBST XB= 0,5219,629640,634887,0,968 /
&OBST XB= 0,5219,634887,640134,0,971 /
&OBST XB= 0,5219,640134,645381,0,981 /
&OBST XB= 0,5219,645381,650628,0,992 /
&OBST XB= 0,5219,650628,655875,0,1000 /
&OBST XB= 0,5219,655875,661122,0,1002 /
&OBST XB= 0,5219,661122,666369,0,1006 /
&OBST XB= 0,5219,666369,671616,0,1017 /
&OBST XB= 0,5219,671616,676863,0,1037 /
&OBST XB= 0,5219,676863,682110,0,1047 /
&OBST XB= 0,5219,682110,687357,0,1058 /
&OBST XB= 0,5219,687357,692604,0,1081 /
&OBST XB= 0,5219,692604,697851,0,1090 /
&OBST XB= 0,5219,697851,703098,0,1099 /
&OBST XB= 0,5219,703098,708345,0,1106 /
&OBST XB= 0,5219,708345,713592,0,1134 /
&OBST XB= 0,5219,713592,718839,0,1139 /
&OBST XB= 0,5219,718839,724086,0,1145 /
&OBST XB= 0,5219,724086,729333,0,1149 /
&OBST XB= 0,5219,729333,734580,0,1154 /
&OBST XB= 0,5219,734580,739827,0,1173 /
&OBST XB= 0,5219,739827,745074,0,1176 /
&OBST XB= 0,5219,745074,750321,0,1180 /
&OBST XB= 0,5219,750321,755568,0,1179 /
&OBST XB= 0,5219,755568,760815,0,1189 /
&OBST XB= 0,5219,760815,766062,0,1187 /
&OBST XB= 0,5219,766062,771309,0,1183 /
&OBST XB= 0,5219,771309,776556,0,1177 /
&OBST XB= 0,5219,776556,781803,0,1167 /
&OBST XB= 0,5219,781803,787050,0,1173 /
&OBST XB= 0,5219,787050,792297,0,1169 /
&OBST XB= 0,5219,792297,797544,0,1165 /
&OBST XB= 0,5219,797544,802791,0,1166 /
&OBST XB= 0,5219,802791,808038,0,1177 /
&OBST XB= 0,5219,808038,813285,0,1191 /
&OBST XB= 0,5219,813285,818532,0,1208 /
&OBST XB= 0,5219,818532,823779,0,1215 /
&OBST XB= 0,5219,823779,829026,0,1222 /
&OBST XB= 0,5219,829026,834273,0,1236 /
&OBST XB= 0,5219,834273,839520,0,1243 /
&OBST XB= 0,5219,839520,844767,0,1252 /
&OBST XB= 0,5219,844767,850014,0,1261 /
&OBST XB= 0,5219,850014,855261,0,1287 /
&OBST XB= 0,5219,855261,860508,0,1295 /
&OBST XB= 0,5219,860508,865755,0,1303 /
&OBST XB= 0,5219,865755,871002,0,1311 /
&OBST XB= 0,5219,871002,876249,0,1321 /
&OBST XB= 0,5219,876249,881496,0,1340 /
&OBST XB= 0,5219,881496,886743,0,1350 /
&OBST XB= 0,5219,886743,891990,0,1368 /
&OBST XB= 0,5219,891990,897237,0,1374 /
&OBST XB= 0,5219,897237,902484,0,1372 /
&OBST XB= 0,5219,902484,907731,0,1374 /
&OBST XB= 0,5219,907731,912978,0,1374 /
&OBST XB= 0,5219,912978,918225,0,1369 /
&OBST XB= 0,5219,918225,923472,0,1345 /
&OBST XB= 0,5219,923472,928719,0,1338 /
&OBST XB= 0,5219,928719,933966,0,1323 /
&OBST XB= 0,5219,933966,939213,0,1310 /
&OBST XB= 0,5219,939213,944460,0,1300 /
&OBST XB= 0,5219,944460,949707,0,1299 /
&OBST XB= 0,5219,949707,954954,0,1282 /
&OBST XB= 0,5219,954954,960201,0,1255 /
&OBST XB= 0,5219,960201,965448,0,1241 /
&OBST XB= 0,5219,965448,970695,0,1236 /
&OBST XB= 5219,10438,0,5247,0,1095 /
&OBST XB= 5219,10438,5247,10494,0,1086 /
&OBST XB= 5219,10438,10494,15741,0,1117 /
&OBST XB= 5219,10438,15741,20988,0,1125 /
&OBST XB= 5219,10438,20988,26235,0,1140 /
&OBST XB= 5219,10438,26235,31482,0,1152 /
&OBST XB= 5219,10438,31482,36729,0,1167 /
&OBST XB= 5219,10438,36729,41976,0,1181 /
&OBST XB= 5219,10438,41976,47223,0,1204 /
&OBST XB= 5219,10438,47223,52470,0,1215 /
&OBST XB= 5219,10438,52470,57717,0,1220 /
&OBST XB= 5219,10438,57717,62964,0,1220 /
&OBST XB= 5219,10438,62964,68211,0,1214 /
&OBST XB= 5219,10438,68211,73458,0,1212 /
&OBST XB= 5219,10438,73458,78705,0,1208 /
&OBST XB= 5219,10438,78705,83952,0,1196 /
&OBST XB= 5219,10438,83952,89199,0,1189 /
&OBST XB= 5219,10438,89199,94446,0,1181 /
&OBST XB= 5219,10438,94446,99693,0,1176 /
&OBST XB= 5219,10438,99693,104940,0,1170 /
&OBST XB= 5219,10438,104940,110187,0,1165 /
&OBST XB= 5219,10438,110187,115434,0,1157 /
&OBST XB= 5219,10438,115434,120681,0,1157 /
&OBST XB= 5219,10438,120681,125928,0,1164 /
&OBST XB= 5219,10438,125928,131175,0,1172 /
&OBST XB= 5219,10438,131175,136422,0,1173 /
&OBST XB= 5219,10438,136422,141669,0,1158 /
&OBST XB= 5219,10438,141669,146916,0,1155 /
&OBST XB= 5219,10438,146916,152163,0,1155 /
&OBST XB= 5219,10438,152163,157410,0,1150 /
&OBST XB= 5219,10438,157410,162657,0,1151 /
&OBST XB= 5219,10438,162657,167904,0,1146 /
&OBST XB= 5219,10438,167904,173151,0,1140 /
&OBST XB= 5219,10438,173151,178398,0,1134 /
&OBST XB= 5219,10438,178398,183645,0,1125 /
&OBST XB= 5219,10438,183645,188892,0,1104 /
&OBST XB= 5219,10438,188892,194139,0,1095 /
&OBST XB= 5219,10438,194139,199386,0,1083 /
&OBST XB= 5219,10438,199386,204633,0,1073 /
&OBST XB= 5219,10438,204633,209880,0,1061 /
&OBST XB= 5219,10438,209880,215127,0,1054 /
&OBST XB= 5219,10438,215127,220374,0,1052 /
&OBST XB= 5219,10438,220374,225621,0,1052 /
&OBST XB= 5219,10438,225621,230868,0,1050 /
&OBST XB= 5219,10438,230868,236115,0,1049 /
&OBST XB= 5219,10438,236115,241362,0,1045 /
&OBST XB= 5219,10438,241362,246609,0,1042 /
&OBST XB= 5219,10438,246609,251856,0,1038 /
&OBST XB= 5219,10438,251856,257103,0,1037 /
&OBST XB= 5219,10438,257103,262350,0,1031 /
&OBST XB= 5219,10438,262350,267597,0,1026 /
&OBST XB= 5219,10438,267597,272844,0,1023 /
&OBST XB= 5219,10438,272844,278091,0,1021 /
&OBST XB= 5219,10438,278091,283338,0,1015 /
&OBST XB= 5219,10438,283338,288585,0,1018 /
&OBST XB= 5219,10438,288585,293832,0,1018 /
&OBST XB= 5219,10438,293832,299079,0,1015 /
&OBST XB= 5219,10438,299079,304326,0,1005 /
&OBST XB= 5219,10438,304326,309573,0,1001 /
&OBST XB= 5219,10438,309573,314820,0,998 /
&OBST XB= 5219,10438,314820,320067,0,995 /
&OBST XB= 5219,10438,320067,325314,0,991 /
&OBST XB= 5219,10438,325314,330561,0,982 /
&OBST XB= 5219,10438,330561,335808,0,981 /
&OBST XB= 5219,10438,335808,341055,0,983 /
&OBST XB= 5219,10438,341055,346302,0,985 /
&OBST XB= 5219,10438,346302,351549,0,979 /
&OBST XB= 5219,10438,351549,356796,0,976 /
&OBST XB= 5219,10438,356796,362043,0,975 /
&OBST XB= 5219,10438,362043,367290,0,971 /
&OBST XB= 5219,10438,367290,372537,0,969 /
&OBST XB= 5219,10438,372537,377784,0,967 /
&OBST XB= 5219,10438,377784,383031,0,966 /
&OBST XB= 5219,10438,383031,388278,0,965 /
&OBST XB= 5219,10438,388278,393525,0,962 /
&OBST XB= 5219,10438,393525,398772,0,962 /
&OBST XB= 5219,10438,398772,404019,0,963 /
&OBST XB= 5219,10438,404019,409266,0,961 /
&OBST XB= 5219,10438,409266,414513,0,961 /
&OBST XB= 5219,10438,414513,419760,0,961 /
&OBST XB= 5219,10438,419760,425007,0,961 /
&OBST XB= 5219,10438,425007,430254,0,961 /
&OBST XB= 5219,10438,430254,435501,0,961 /
&OBST XB= 5219,10438,435501,440748,0,961 /
&OBST XB= 5219,10438,440748,445995,0,961 /
&OBST XB= 5219,10438,445995,451242,0,961 /
&OBST XB= 5219,10438,451242,456489,0,961 /
&OBST XB= 5219,10438,456489,461736,0,961 /
&OBST XB= 5219,10438,461736,466983,0,961 /
&OBST XB= 5219,10438,466983,472230,0,961 /
&OBST XB= 5219,10438,472230,477477,0,961 /
&OBST XB= 5219,10438,477477,482724,0,961 /
&OBST XB= 5219,10438,482724,487971,0,961 /
&OBST XB= 5219,10438,487971,493218,0,960 /
&OBST XB= 5219,10438,493218,498465,0,961 /
&OBST XB= 5219,10438,498465,503712,0,960 /
&OBST XB= 5219,10438,503712,508959,0,960 /
&OBST XB= 5219,10438,508959,514206,0,960 /
&OBST XB= 5219,10438,514206,519453,0,960 /
&OBST XB= 5219,10438,519453,524700,0,960 /
&OBST XB= 5219,10438,524700,529947,0,960 /
&OBST XB= 5219,10438,529947,535194,0,960 /
&OBST XB= 5219,10438,535194,540441,0,960 /
&OBST XB= 5219,10438,540441,545688,0,960 /
&OBST XB= 5219,10438,545688,550935,0,960 /
&OBST XB= 5219,10438,550935,556182,0,960 /
&OBST XB= 5219,10438,556182,561429,0,960 /
&OBST XB= 5219,10438,561429,566676,0,960 /
&OBST XB= 5219,10438,566676,571923,0,960 /
&OBST XB= 5219,10438,571923,577170,0,960 /
&OBST XB= 5219,10438,577170,582417,0,961 /
&OBST XB= 5219,10438,582417,587664,0,961 /
&OBST XB= 5219,10438,587664,592911,0,962 /
&OBST XB= 5219,10438,592911,598158,0,962 /
&OBST XB= 5219,10438,598158,603405,0,963 /
&OBST XB= 5219,10438,603405,608652,0,964 /
&OBST XB= 5219,10438,608652,613899,0,965 /
&OBST XB= 5219,10438,613899,619146,0,966 /
&OBST XB= 5219,10438,619146,624393,0,967 /
&OBST XB= 5219,10438,624393,629640,0,968 /
&OBST XB= 5219,10438,629640,634887,0,969 /
&OBST XB= 5219,10438,634887,640134,0,970 /
&OBST XB= 5219,10438,640134,645381,0,978 /
&OBST XB= 5219,10438,645381,650628,0,1002 /
&OBST XB= 5219,10438,650628,655875,0,1008 /
&OBST XB= 5219,10438,655875,661122,0,1019 /
&OBST XB= 5219,10438,661122,666369,0,1015 /
&OBST XB= 5219,10438,666369,671616,0,1023 /
&OBST XB= 5219,10438,671616,676863,0,1038 /
&OBST XB= 5219,10438,676863,682110,0,1050 /
&OBST XB= 5219,10438,682110,687357,0,1084 /
&OBST XB= 5219,10438,687357,692604,0,1095 /
&OBST XB= 5219,10438,692604,697851,0,1105 /
&OBST XB= 5219,10438,697851,703098,0,1112 /
&OBST XB= 5219,10438,703098,708345,0,1132 /
&OBST XB= 5219,10438,708345,713592,0,1139 /
&OBST XB= 5219,10438,713592,718839,0,1152 /
&OBST XB= 5219,10438,718839,724086,0,1158 /
&OBST XB= 5219,10438,724086,729333,0,1163 /
&OBST XB= 5219,10438,729333,734580,0,1181 /
&OBST XB= 5219,10438,734580,739827,0,1187 /
&OBST XB= 5219,10438,739827,745074,0,1188 /
&OBST XB= 5219,10438,745074,750321,0,1189 /
&OBST XB= 5219,10438,750321,755568,0,1200 /
&OBST XB= 5219,10438,755568,760815,0,1200 /
&OBST XB= 5219,10438,760815,766062,0,1198 /
&OBST XB= 5219,10438,766062,771309,0,1194 /
&OBST XB= 5219,10438,771309,776556,0,1189 /
&OBST XB= 5219,10438,776556,781803,0,1194 /
&OBST XB= 5219,10438,781803,787050,0,1187 /
&OBST XB= 5219,10438,787050,792297,0,1177 /
&OBST XB= 5219,10438,792297,797544,0,1171 /
&OBST XB= 5219,10438,797544,802791,0,1173 /
&OBST XB= 5219,10438,802791,808038,0,1174 /
&OBST XB= 5219,10438,808038,813285,0,1189 /
&OBST XB= 5219,10438,813285,818532,0,1199 /
&OBST XB= 5219,10438,818532,823779,0,1209 /
&OBST XB= 5219,10438,823779,829026,0,1228 /
&OBST XB= 5219,10438,829026,834273,0,1239 /
&OBST XB= 5219,10438,834273,839520,0,1247 /
&OBST XB= 5219,10438,839520,844767,0,1259 /
&OBST XB= 5219,10438,844767,850014,0,1270 /
&OBST XB= 5219,10438,850014,855261,0,1287 /
&OBST XB= 5219,10438,855261,860508,0,1306 /
&OBST XB= 5219,10438,860508,865755,0,1315 /
&OBST XB= 5219,10438,865755,871002,0,1321 /
&OBST XB= 5219,10438,871002,876249,0,1335 /
&OBST XB= 5219,10438,876249,881496,0,1346 /
&OBST XB= 5219,10438,881496,886743,0,1353 /
&OBST XB= 5219,10438,886743,891990,0,1360 /
&OBST XB= 5219,10438,891990,897237,0,1369 /
&OBST XB= 5219,10438,897237,902484,0,1361 /
&OBST XB= 5219,10438,902484,907731,0,1366 /
&OBST XB= 5219,10438,907731,912978,0,1374 /
&OBST XB= 5219,10438,912978,918225,0,1374 /
&OBST XB= 5219,10438,918225,923472,0,1375 /
&OBST XB= 5219,10438,923472,928719,0,1365 /
&OBST XB= 5219,10438,928719,933966,0,1331 /
&OBST XB= 5219,10438,933966,939213,0,1323 /
&OBST XB= 5219,10438,939213,944460,0,1313 /
&OBST XB= 5219,10438,944460,949707,0,1307 /
&OBST XB= 5219,10438,949707,954954,0,1288 /
&OBST XB= 5219,10438,954954,960201,0,1273 /
&OBST XB= 5219,10438,960201,965448,0,1259 /
&OBST XB= 5219,10438,965448,970695,0,1268 /
&OBST XB= 10438,15657,0,5247,0,1095 /
&OBST XB= 10438,15657,5247,10494,0,1082 /
&OBST XB= 10438,15657,10494,15741,0,1080 /
&OBST XB= 10438,15657,15741,20988,0,1119 /
&OBST XB= 10438,15657,20988,26235,0,1136 /
&OBST XB= 10438,15657,26235,31482,0,1149 /
&OBST XB= 10438,15657,31482,36729,0,1162 /
&OBST XB= 10438,15657,36729,41976,0,1172 /
&OBST XB= 10438,15657,41976,47223,0,1186 /
&OBST XB= 10438,15657,47223,52470,0,1200 /
&OBST XB= 10438,15657,52470,57717,0,1216 /
&OBST XB= 10438,15657,57717,62964,0,1213 /
&OBST XB= 10438,15657,62964,68211,0,1211 /
&OBST XB= 10438,15657,68211,73458,0,1208 /
&OBST XB= 10438,15657,73458,78705,0,1204 /
&OBST XB= 10438,15657,78705,83952,0,1199 /
&OBST XB= 10438,15657,83952,89199,0,1190 /
&OBST XB= 10438,15657,89199,94446,0,1178 /
&OBST XB= 10438,15657,94446,99693,0,1172 /
&OBST XB= 10438,15657,99693,104940,0,1167 /
&OBST XB= 10438,15657,104940,110187,0,1159 /
&OBST XB= 10438,15657,110187,115434,0,1154 /
&OBST XB= 10438,15657,115434,120681,0,1149 /
&OBST XB= 10438,15657,120681,125928,0,1157 /
&OBST XB= 10438,15657,125928,131175,0,1165 /
&OBST XB= 10438,15657,131175,136422,0,1157 /
&OBST XB= 10438,15657,136422,141669,0,1152 /
&OBST XB= 10438,15657,141669,146916,0,1147 /
&OBST XB= 10438,15657,146916,152163,0,1146 /
&OBST XB= 10438,15657,152163,157410,0,1146 /
&OBST XB= 10438,15657,157410,162657,0,1144 /
&OBST XB= 10438,15657,162657,167904,0,1139 /
&OBST XB= 10438,15657,167904,173151,0,1133 /
&OBST XB= 10438,15657,173151,178398,0,1126 /
&OBST XB= 10438,15657,178398,183645,0,1109 /
&OBST XB= 10438,15657,183645,188892,0,1103 /
&OBST XB= 10438,15657,188892,194139,0,1096 /
&OBST XB= 10438,15657,194139,199386,0,1078 /
&OBST XB= 10438,15657,199386,204633,0,1068 /
&OBST XB= 10438,15657,204633,209880,0,1058 /
&OBST XB= 10438,15657,209880,215127,0,1055 /
&OBST XB= 10438,15657,215127,220374,0,1056 /
&OBST XB= 10438,15657,220374,225621,0,1055 /
&OBST XB= 10438,15657,225621,230868,0,1055 /
&OBST XB= 10438,15657,230868,236115,0,1051 /
&OBST XB= 10438,15657,236115,241362,0,1049 /
&OBST XB= 10438,15657,241362,246609,0,1045 /
&OBST XB= 10438,15657,246609,251856,0,1041 /
&OBST XB= 10438,15657,251856,257103,0,1038 /
&OBST XB= 10438,15657,257103,262350,0,1034 /
&OBST XB= 10438,15657,262350,267597,0,1024 /
&OBST XB= 10438,15657,267597,272844,0,1020 /
&OBST XB= 10438,15657,272844,278091,0,1011 /
&OBST XB= 10438,15657,278091,283338,0,1008 /
&OBST XB= 10438,15657,283338,288585,0,1009 /
&OBST XB= 10438,15657,288585,293832,0,1010 /
&OBST XB= 10438,15657,293832,299079,0,1010 /
&OBST XB= 10438,15657,299079,304326,0,998 /
&OBST XB= 10438,15657,304326,309573,0,995 /
&OBST XB= 10438,15657,309573,314820,0,993 /
&OBST XB= 10438,15657,314820,320067,0,990 /
&OBST XB= 10438,15657,320067,325314,0,985 /
&OBST XB= 10438,15657,325314,330561,0,982 /
&OBST XB= 10438,15657,330561,335808,0,981 /
&OBST XB= 10438,15657,335808,341055,0,981 /
&OBST XB= 10438,15657,341055,346302,0,981 /
&OBST XB= 10438,15657,346302,351549,0,977 /
&OBST XB= 10438,15657,351549,356796,0,975 /
&OBST XB= 10438,15657,356796,362043,0,973 /
&OBST XB= 10438,15657,362043,367290,0,972 /
&OBST XB= 10438,15657,367290,372537,0,969 /
&OBST XB= 10438,15657,372537,377784,0,967 /
&OBST XB= 10438,15657,377784,383031,0,965 /
&OBST XB= 10438,15657,383031,388278,0,964 /
&OBST XB= 10438,15657,388278,393525,0,963 /
&OBST XB= 10438,15657,393525,398772,0,964 /
&OBST XB= 10438,15657,398772,404019,0,964 /
&OBST XB= 10438,15657,404019,409266,0,962 /
&OBST XB= 10438,15657,409266,414513,0,961 /
&OBST XB= 10438,15657,414513,419760,0,961 /
&OBST XB= 10438,15657,419760,425007,0,961 /
&OBST XB= 10438,15657,425007,430254,0,961 /
&OBST XB= 10438,15657,430254,435501,0,961 /
&OBST XB= 10438,15657,435501,440748,0,961 /
&OBST XB= 10438,15657,440748,445995,0,961 /
&OBST XB= 10438,15657,445995,451242,0,961 /
&OBST XB= 10438,15657,451242,456489,0,961 /
&OBST XB= 10438,15657,456489,461736,0,961 /
&OBST XB= 10438,15657,461736,466983,0,961 /
&OBST XB= 10438,15657,466983,472230,0,961 /
&OBST XB= 10438,15657,472230,477477,0,961 /
&OBST XB= 10438,15657,477477,482724,0,961 /
&OBST XB= 10438,15657,482724,487971,0,961 /
&OBST XB= 10438,15657,487971,493218,0,961 /
&OBST XB= 10438,15657,493218,498465,0,961 /
&OBST XB= 10438,15657,498465,503712,0,961 /
&OBST XB= 10438,15657,503712,508959,0,961 /
&OBST XB= 10438,15657,508959,514206,0,960 /
&OBST XB= 10438,15657,514206,519453,0,960 /
&OBST XB= 10438,15657,519453,524700,0,960 /
&OBST XB= 10438,15657,524700,529947,0,960 /
&OBST XB= 10438,15657,529947,535194,0,960 /
&OBST XB= 10438,15657,535194,540441,0,960 /
&OBST XB= 10438,15657,540441,545688,0,960 /
&OBST XB= 10438,15657,545688,550935,0,960 /
&OBST XB= 10438,15657,550935,556182,0,960 /
&OBST XB= 10438,15657,556182,561429,0,960 /
&OBST XB= 10438,15657,561429,566676,0,960 /
&OBST XB= 10438,15657,566676,571923,0,960 /
&OBST XB= 10438,15657,571923,577170,0,961 /
&OBST XB= 10438,15657,577170,582417,0,961 /
&OBST XB= 10438,15657,582417,587664,0,962 /
&OBST XB= 10438,15657,587664,592911,0,962 /
&OBST XB= 10438,15657,592911,598158,0,963 /
&OBST XB= 10438,15657,598158,603405,0,963 /
&OBST XB= 10438,15657,603405,608652,0,964 /
&OBST XB= 10438,15657,608652,613899,0,965 /
&OBST XB= 10438,15657,613899,619146,0,966 /
&OBST XB= 10438,15657,619146,624393,0,968 /
&OBST XB= 10438,15657,624393,629640,0,968 /
&OBST XB= 10438,15657,629640,634887,0,969 /
&OBST XB= 10438,15657,634887,640134,0,971 /
&OBST XB= 10438,15657,640134,645381,0,986 /
&OBST XB= 10438,15657,645381,650628,0,1000 /
&OBST XB= 10438,15657,650628,655875,0,1018 /
&OBST XB= 10438,15657,655875,661122,0,1029 /
&OBST XB= 10438,15657,661122,666369,0,1025 /
&OBST XB= 10438,15657,666369,671616,0,1028 /
&OBST XB= 10438,15657,671616,676863,0,1044 /
&OBST XB= 10438,15657,676863,682110,0,1063 /
&OBST XB= 10438,15657,682110,687357,0,1078 /
&OBST XB= 10438,15657,687357,692604,0,1105 /
&OBST XB= 10438,15657,692604,697851,0,1115 /
&OBST XB= 10438,15657,697851,703098,0,1123 /
&OBST XB= 10438,15657,703098,708345,0,1140 /
&OBST XB= 10438,15657,708345,713592,0,1149 /
&OBST XB= 10438,15657,713592,718839,0,1158 /
&OBST XB= 10438,15657,718839,724086,0,1165 /
&OBST XB= 10438,15657,724086,729333,0,1187 /
&OBST XB= 10438,15657,729333,734580,0,1194 /
&OBST XB= 10438,15657,734580,739827,0,1198 /
&OBST XB= 10438,15657,739827,745074,0,1200 /
&OBST XB= 10438,15657,745074,750321,0,1201 /
&OBST XB= 10438,15657,750321,755568,0,1210 /
&OBST XB= 10438,15657,755568,760815,0,1211 /
&OBST XB= 10438,15657,760815,766062,0,1209 /
&OBST XB= 10438,15657,766062,771309,0,1206 /
&OBST XB= 10438,15657,771309,776556,0,1212 /
&OBST XB= 10438,15657,776556,781803,0,1204 /
&OBST XB= 10438,15657,781803,787050,0,1196 /
&OBST XB= 10438,15657,787050,792297,0,1190 /
&OBST XB= 10438,15657,792297,797544,0,1178 /
&OBST XB= 10438,15657,797544,802791,0,1179 /
&OBST XB= 10438,15657,802791,808038,0,1176 /
&OBST XB= 10438,15657,808038,813285,0,1182 /
&OBST XB= 10438,15657,813285,818532,0,1196 /
&OBST XB= 10438,15657,818532,823779,0,1203 /
&OBST XB= 10438,15657,823779,829026,0,1216 /
&OBST XB= 10438,15657,829026,834273,0,1240 /
&OBST XB= 10438,15657,834273,839520,0,1251 /
&OBST XB= 10438,15657,839520,844767,0,1265 /
&OBST XB= 10438,15657,844767,850014,0,1278 /
&OBST XB= 10438,15657,850014,855261,0,1293 /
&OBST XB= 10438,15657,855261,860508,0,1304 /
&OBST XB= 10438,15657,860508,865755,0,1317 /
&OBST XB= 10438,15657,865755,871002,0,1337 /
&OBST XB= 10438,15657,871002,876249,0,1336 /
&OBST XB= 10438,15657,876249,881496,0,1341 /
&OBST XB= 10438,15657,881496,886743,0,1349 /
&OBST XB= 10438,15657,886743,891990,0,1354 /
&OBST XB= 10438,15657,891990,897237,0,1351 /
&OBST XB= 10438,15657,897237,902484,0,1351 /
&OBST XB= 10438,15657,902484,907731,0,1359 /
&OBST XB= 10438,15657,907731,912978,0,1370 /
&OBST XB= 10438,15657,912978,918225,0,1381 /
&OBST XB= 10438,15657,918225,923472,0,1381 /
&OBST XB= 10438,15657,923472,928719,0,1373 /
&OBST XB= 10438,15657,928719,933966,0,1361 /
&OBST XB= 10438,15657,933966,939213,0,1338 /
&OBST XB= 10438,15657,939213,944460,0,1331 /
&OBST XB= 10438,15657,944460,949707,0,1311 /
&OBST XB= 10438,15657,949707,954954,0,1292 /
&OBST XB= 10438,15657,954954,960201,0,1276 /
&OBST XB= 10438,15657,960201,965448,0,1263 /
&OBST XB= 10438,15657,965448,970695,0,1281 /
&OBST XB= 15657,20876,0,5247,0,1094 /
&OBST XB= 15657,20876,5247,10494,0,1082 /
&OBST XB= 15657,20876,10494,15741,0,1074 /
&OBST XB= 15657,20876,15741,20988,0,1095 /
&OBST XB= 15657,20876,20988,26235,0,1113 /
&OBST XB= 15657,20876,26235,31482,0,1145 /
&OBST XB= 15657,20876,31482,36729,0,1154 /
&OBST XB= 15657,20876,36729,41976,0,1168 /
&OBST XB= 15657,20876,41976,47223,0,1181 /
&OBST XB= 15657,20876,47223,52470,0,1196 /
&OBST XB= 15657,20876,52470,57717,0,1207 /
&OBST XB= 15657,20876,57717,62964,0,1212 /
&OBST XB= 15657,20876,62964,68211,0,1210 /
&OBST XB= 15657,20876,68211,73458,0,1207 /
&OBST XB= 15657,20876,73458,78705,0,1202 /
&OBST XB= 15657,20876,78705,83952,0,1194 /
&OBST XB= 15657,20876,83952,89199,0,1187 /
&OBST XB= 15657,20876,89199,94446,0,1181 /
&OBST XB= 15657,20876,94446,99693,0,1168 /
&OBST XB= 15657,20876,99693,104940,0,1163 /
&OBST XB= 15657,20876,104940,110187,0,1155 /
&OBST XB= 15657,20876,110187,115434,0,1151 /
&OBST XB= 15657,20876,115434,120681,0,1146 /
&OBST XB= 15657,20876,120681,125928,0,1143 /
&OBST XB= 15657,20876,125928,131175,0,1142 /
&OBST XB= 15657,20876,131175,136422,0,1148 /
&OBST XB= 15657,20876,136422,141669,0,1144 /
&OBST XB= 15657,20876,141669,146916,0,1136 /
&OBST XB= 15657,20876,146916,152163,0,1135 /
&OBST XB= 15657,20876,152163,157410,0,1142 /
&OBST XB= 15657,20876,157410,162657,0,1140 /
&OBST XB= 15657,20876,162657,167904,0,1134 /
&OBST XB= 15657,20876,167904,173151,0,1121 /
&OBST XB= 15657,20876,173151,178398,0,1103 /
&OBST XB= 15657,20876,178398,183645,0,1098 /
&OBST XB= 15657,20876,183645,188892,0,1091 /
&OBST XB= 15657,20876,188892,194139,0,1085 /
&OBST XB= 15657,20876,194139,199386,0,1078 /
&OBST XB= 15657,20876,199386,204633,0,1062 /
&OBST XB= 15657,20876,204633,209880,0,1060 /
&OBST XB= 15657,20876,209880,215127,0,1059 /
&OBST XB= 15657,20876,215127,220374,0,1058 /
&OBST XB= 15657,20876,220374,225621,0,1059 /
&OBST XB= 15657,20876,225621,230868,0,1057 /
&OBST XB= 15657,20876,230868,236115,0,1056 /
&OBST XB= 15657,20876,236115,241362,0,1052 /
&OBST XB= 15657,20876,241362,246609,0,1048 /
&OBST XB= 15657,20876,246609,251856,0,1043 /
&OBST XB= 15657,20876,251856,257103,0,1037 /
&OBST XB= 15657,20876,257103,262350,0,1032 /
&OBST XB= 15657,20876,262350,267597,0,1027 /
&OBST XB= 15657,20876,267597,272844,0,1020 /
&OBST XB= 15657,20876,272844,278091,0,1008 /
&OBST XB= 15657,20876,278091,283338,0,1003 /
&OBST XB= 15657,20876,283338,288585,0,1001 /
&OBST XB= 15657,20876,288585,293832,0,1001 /
&OBST XB= 15657,20876,293832,299079,0,996 /
&OBST XB= 15657,20876,299079,304326,0,994 /
&OBST XB= 15657,20876,304326,309573,0,992 /
&OBST XB= 15657,20876,309573,314820,0,989 /
&OBST XB= 15657,20876,314820,320067,0,987 /
&OBST XB= 15657,20876,320067,325314,0,988 /
&OBST XB= 15657,20876,325314,330561,0,986 /
&OBST XB= 15657,20876,330561,335808,0,983 /
&OBST XB= 15657,20876,335808,341055,0,982 /
&OBST XB= 15657,20876,341055,346302,0,979 /
&OBST XB= 15657,20876,346302,351549,0,977 /
&OBST XB= 15657,20876,351549,356796,0,975 /
&OBST XB= 15657,20876,356796,362043,0,972 /
&OBST XB= 15657,20876,362043,367290,0,971 /
&OBST XB= 15657,20876,367290,372537,0,969 /
&OBST XB= 15657,20876,372537,377784,0,968 /
&OBST XB= 15657,20876,377784,383031,0,965 /
&OBST XB= 15657,20876,383031,388278,0,964 /
&OBST XB= 15657,20876,388278,393525,0,965 /
&OBST XB= 15657,20876,393525,398772,0,965 /
&OBST XB= 15657,20876,398772,404019,0,965 /
&OBST XB= 15657,20876,404019,409266,0,965 /
&OBST XB= 15657,20876,409266,414513,0,963 /
&OBST XB= 15657,20876,414513,419760,0,962 /
&OBST XB= 15657,20876,419760,425007,0,961 /
&OBST XB= 15657,20876,425007,430254,0,961 /
&OBST XB= 15657,20876,430254,435501,0,961 /
&OBST XB= 15657,20876,435501,440748,0,961 /
&OBST XB= 15657,20876,440748,445995,0,961 /
&OBST XB= 15657,20876,445995,451242,0,961 /
&OBST XB= 15657,20876,451242,456489,0,961 /
&OBST XB= 15657,20876,456489,461736,0,961 /
&OBST XB= 15657,20876,461736,466983,0,961 /
&OBST XB= 15657,20876,466983,472230,0,961 /
&OBST XB= 15657,20876,472230,477477,0,961 /
&OBST XB= 15657,20876,477477,482724,0,961 /
&OBST XB= 15657,20876,482724,487971,0,961 /
&OBST XB= 15657,20876,487971,493218,0,961 /
&OBST XB= 15657,20876,493218,498465,0,961 /
&OBST XB= 15657,20876,498465,503712,0,961 /
&OBST XB= 15657,20876,503712,508959,0,961 /
&OBST XB= 15657,20876,508959,514206,0,961 /
&OBST XB= 15657,20876,514206,519453,0,960 /
&OBST XB= 15657,20876,519453,524700,0,960 /
&OBST XB= 15657,20876,524700,529947,0,960 /
&OBST XB= 15657,20876,529947,535194,0,960 /
&OBST XB= 15657,20876,535194,540441,0,960 /
&OBST XB= 15657,20876,540441,545688,0,960 /
&OBST XB= 15657,20876,545688,550935,0,960 /
&OBST XB= 15657,20876,550935,556182,0,960 /
&OBST XB= 15657,20876,556182,561429,0,960 /
&OBST XB= 15657,20876,561429,566676,0,960 /
&OBST XB= 15657,20876,566676,571923,0,960 /
&OBST XB= 15657,20876,571923,577170,0,961 /
&OBST XB= 15657,20876,577170,582417,0,961 /
&OBST XB= 15657,20876,582417,587664,0,961 /
&OBST XB= 15657,20876,587664,592911,0,962 /
&OBST XB= 15657,20876,592911,598158,0,963 /
&OBST XB= 15657,20876,598158,603405,0,963 /
&OBST XB= 15657,20876,603405,608652,0,964 /
&OBST XB= 15657,20876,608652,613899,0,965 /
&OBST XB= 15657,20876,613899,619146,0,966 /
&OBST XB= 15657,20876,619146,624393,0,967 /
&OBST XB= 15657,20876,624393,629640,0,970 /
&OBST XB= 15657,20876,629640,634887,0,974 /
&OBST XB= 15657,20876,634887,640134,0,983 /
&OBST XB= 15657,20876,640134,645381,0,994 /
&OBST XB= 15657,20876,645381,650628,0,1009 /
&OBST XB= 15657,20876,650628,655875,0,1030 /
&OBST XB= 15657,20876,655875,661122,0,1039 /
&OBST XB= 15657,20876,661122,666369,0,1035 /
&OBST XB= 15657,20876,666369,671616,0,1032 /
&OBST XB= 15657,20876,671616,676863,0,1042 /
&OBST XB= 15657,20876,676863,682110,0,1058 /
&OBST XB= 15657,20876,682110,687357,0,1078 /
&OBST XB= 15657,20876,687357,692604,0,1091 /
&OBST XB= 15657,20876,692604,697851,0,1106 /
&OBST XB= 15657,20876,697851,703098,0,1127 /
&OBST XB= 15657,20876,703098,708345,0,1138 /
&OBST XB= 15657,20876,708345,713592,0,1148 /
&OBST XB= 15657,20876,713592,718839,0,1160 /
&OBST XB= 15657,20876,718839,724086,0,1169 /
&OBST XB= 15657,20876,724086,729333,0,1172 /
&OBST XB= 15657,20876,729333,734580,0,1190 /
&OBST XB= 15657,20876,734580,739827,0,1197 /
&OBST XB= 15657,20876,739827,745074,0,1203 /