&HEAD  CHID='SMso', Title='This is the Title ' / 

&TIME T_END=1.0 /

&DUMP WRITE_XYZ=.TRUE., DT_PL3D=0.1 /

&MESH IJK=20,20,100,XB=0,1013754,0,1013754,0,3000/

&OBST XB= 0,48274,0,48274,0,959 /
&OBST XB= 0,48274,48274,96548,0,959 /
&OBST XB= 0,48274,96548,144822,0,960 /
&OBST XB= 0,48274,144822,193096,0,961 /
&OBST XB= 0,48274,193096,241370,0,962 /
&OBST XB= 0,48274,241370,289644,0,964 /
&OBST XB= 0,48274,289644,337918,0,966 /
&OBST XB= 0,48274,337918,386192,0,967 /
&OBST XB= 0,48274,386192,434466,0,968 /
&OBST XB= 0,48274,434466,482740,0,969 /
&OBST XB= 0,48274,482740,531014,0,970 /
&OBST XB= 0,48274,531014,579288,0,971 /
&OBST XB= 0,48274,579288,627562,0,972 /
&OBST XB= 0,48274,627562,675836,0,974 /
&OBST XB= 0,48274,675836,724110,0,975 /
&OBST XB= 0,48274,724110,772384,0,976 /
&OBST XB= 0,48274,772384,820658,0,977 /
&OBST XB= 0,48274,820658,868932,0,979 /
&OBST XB= 0,48274,868932,917206,0,980 /
&OBST XB= 0,48274,917206,965480,0,981 /
&OBST XB= 48274,96548,0,48274,0,958 /
&OBST XB= 48274,96548,48274,96548,0,960 /
&OBST XB= 48274,96548,96548,144822,0,961 /
&OBST XB= 48274,96548,144822,193096,0,961 /
&OBST XB= 48274,96548,193096,241370,0,963 /
&OBST XB= 48274,96548,241370,289644,0,964 /
&OBST XB= 48274,96548,289644,337918,0,965 /
&OBST XB= 48274,96548,337918,386192,0,966 /
&OBST XB= 48274,96548,386192,434466,0,968 /
&OBST XB= 48274,96548,434466,482740,0,969 /
&OBST XB= 48274,96548,482740,531014,0,970 /
&OBST XB= 48274,96548,531014,579288,0,970 /
&OBST XB= 48274,96548,579288,627562,0,972 /
&OBST XB= 48274,96548,627562,675836,0,973 /
&OBST XB= 48274,96548,675836,724110,0,975 /
&OBST XB= 48274,96548,724110,772384,0,976 /
&OBST XB= 48274,96548,772384,820658,0,977 /
&OBST XB= 48274,96548,820658,868932,0,979 /
&OBST XB= 48274,96548,868932,917206,0,980 /
&OBST XB= 48274,96548,917206,965480,0,989 /
&OBST XB= 96548,144822,0,48274,0,958 /
&OBST XB= 96548,144822,48274,96548,0,959 /
&OBST XB= 96548,144822,96548,144822,0,961 /
&OBST XB= 96548,144822,144822,193096,0,962 /
&OBST XB= 96548,144822,193096,241370,0,963 /
&OBST XB= 96548,144822,241370,289644,0,964 /
&OBST XB= 96548,144822,289644,337918,0,965 /
&OBST XB= 96548,144822,337918,386192,0,966 /
&OBST XB= 96548,144822,386192,434466,0,967 /
&OBST XB= 96548,144822,434466,482740,0,969 /
&OBST XB= 96548,144822,482740,531014,0,970 /
&OBST XB= 96548,144822,531014,579288,0,971 /
&OBST XB= 96548,144822,579288,627562,0,972 /
&OBST XB= 96548,144822,627562,675836,0,973 /
&OBST XB= 96548,144822,675836,724110,0,973 /
&OBST XB= 96548,144822,724110,772384,0,974 /
&OBST XB= 96548,144822,772384,820658,0,977 /
&OBST XB= 96548,144822,820658,868932,0,979 /
&OBST XB= 96548,144822,868932,917206,0,981 /
&OBST XB= 96548,144822,917206,965480,0,1041 /
&OBST XB= 144822,193096,0,48274,0,958 /
&OBST XB= 144822,193096,48274,96548,0,959 /
&OBST XB= 144822,193096,96548,144822,0,960 /
&OBST XB= 144822,193096,144822,193096,0,961 /
&OBST XB= 144822,193096,193096,241370,0,963 /
&OBST XB= 144822,193096,241370,289644,0,964 /
&OBST XB= 144822,193096,289644,337918,0,965 /
&OBST XB= 144822,193096,337918,386192,0,966 /
&OBST XB= 144822,193096,386192,434466,0,967 /
&OBST XB= 144822,193096,434466,482740,0,968 /
&OBST XB= 144822,193096,482740,531014,0,968 /
&OBST XB= 144822,193096,531014,579288,0,971 /
&OBST XB= 144822,193096,579288,627562,0,971 /
&OBST XB= 144822,193096,627562,675836,0,972 /
&OBST XB= 144822,193096,675836,724110,0,973 /
&OBST XB= 144822,193096,724110,772384,0,972 /
&OBST XB= 144822,193096,772384,820658,0,973 /
&OBST XB= 144822,193096,820658,868932,0,981 /
&OBST XB= 144822,193096,868932,917206,0,997 /
&OBST XB= 144822,193096,917206,965480,0,1114 /
&OBST XB= 193096,241370,0,48274,0,958 /
&OBST XB= 193096,241370,48274,96548,0,958 /
&OBST XB= 193096,241370,96548,144822,0,959 /
&OBST XB= 193096,241370,144822,193096,0,961 /
&OBST XB= 193096,241370,193096,241370,0,962 /
&OBST XB= 193096,241370,241370,289644,0,964 /
&OBST XB= 193096,241370,289644,337918,0,965 /
&OBST XB= 193096,241370,337918,386192,0,966 /
&OBST XB= 193096,241370,386192,434466,0,967 /
&OBST XB= 193096,241370,434466,482740,0,968 /
&OBST XB= 193096,241370,482740,531014,0,968 /
&OBST XB= 193096,241370,531014,579288,0,969 /
&OBST XB= 193096,241370,579288,627562,0,971 /
&OBST XB= 193096,241370,627562,675836,0,972 /
&OBST XB= 193096,241370,675836,724110,0,973 /
&OBST XB= 193096,241370,724110,772384,0,974 /
&OBST XB= 193096,241370,772384,820658,0,983 /
&OBST XB= 193096,241370,820658,868932,0,991 /
&OBST XB= 193096,241370,868932,917206,0,990 /
&OBST XB= 193096,241370,917206,965480,0,1167 /
&OBST XB= 241370,289644,0,48274,0,952 /
&OBST XB= 241370,289644,48274,96548,0,952 /
&OBST XB= 241370,289644,96548,144822,0,952 /
&OBST XB= 241370,289644,144822,193096,0,961 /
&OBST XB= 241370,289644,193096,241370,0,962 /
&OBST XB= 241370,289644,241370,289644,0,963 /
&OBST XB= 241370,289644,289644,337918,0,963 /
&OBST XB= 241370,289644,337918,386192,0,965 /
&OBST XB= 241370,289644,386192,434466,0,967 /
&OBST XB= 241370,289644,434466,482740,0,968 /
&OBST XB= 241370,289644,482740,531014,0,968 /
&OBST XB= 241370,289644,531014,579288,0,969 /
&OBST XB= 241370,289644,579288,627562,0,970 /
&OBST XB= 241370,289644,627562,675836,0,972 /
&OBST XB= 241370,289644,675836,724110,0,973 /
&OBST XB= 241370,289644,724110,772384,0,998 /
&OBST XB= 241370,289644,772384,820658,0,1017 /
&OBST XB= 241370,289644,820658,868932,0,1007 /
&OBST XB= 241370,289644,868932,917206,0,1026 /
&OBST XB= 241370,289644,917206,965480,0,1093 /
&OBST XB= 289644,337918,0,48274,0,953 /
&OBST XB= 289644,337918,48274,96548,0,953 /
&OBST XB= 289644,337918,96548,144822,0,952 /
&OBST XB= 289644,337918,144822,193096,0,961 /
&OBST XB= 289644,337918,193096,241370,0,962 /
&OBST XB= 289644,337918,241370,289644,0,963 /
&OBST XB= 289644,337918,289644,337918,0,963 /
&OBST XB= 289644,337918,337918,386192,0,964 /
&OBST XB= 289644,337918,386192,434466,0,966 /
&OBST XB= 289644,337918,434466,482740,0,967 /
&OBST XB= 289644,337918,482740,531014,0,967 /
&OBST XB= 289644,337918,531014,579288,0,969 /
&OBST XB= 289644,337918,579288,627562,0,970 /
&OBST XB= 289644,337918,627562,675836,0,973 /
&OBST XB= 289644,337918,675836,724110,0,973 /
&OBST XB= 289644,337918,724110,772384,0,1051 /
&OBST XB= 289644,337918,772384,820658,0,1051 /
&OBST XB= 289644,337918,820658,868932,0,1017 /
&OBST XB= 289644,337918,868932,917206,0,1049 /
&OBST XB= 289644,337918,917206,965480,0,1135 /
&OBST XB= 337918,386192,0,48274,0,953 /
&OBST XB= 337918,386192,48274,96548,0,954 /
&OBST XB= 337918,386192,96548,144822,0,954 /
&OBST XB= 337918,386192,144822,193096,0,952 /
&OBST XB= 337918,386192,193096,241370,0,962 /
&OBST XB= 337918,386192,241370,289644,0,962 /
&OBST XB= 337918,386192,289644,337918,0,963 /
&OBST XB= 337918,386192,337918,386192,0,964 /
&OBST XB= 337918,386192,386192,434466,0,964 /
&OBST XB= 337918,386192,434466,482740,0,966 /
&OBST XB= 337918,386192,482740,531014,0,967 /
&OBST XB= 337918,386192,531014,579288,0,969 /
&OBST XB= 337918,386192,579288,627562,0,975 /
&OBST XB= 337918,386192,627562,675836,0,991 /
&OBST XB= 337918,386192,675836,724110,0,1040 /
&OBST XB= 337918,386192,724110,772384,0,1055 /
&OBST XB= 337918,386192,772384,820658,0,1063 /
&OBST XB= 337918,386192,820658,868932,0,1035 /
&OBST XB= 337918,386192,868932,917206,0,1049 /
&OBST XB= 337918,386192,917206,965480,0,1137 /
&OBST XB= 386192,434466,0,48274,0,954 /
&OBST XB= 386192,434466,48274,96548,0,954 /
&OBST XB= 386192,434466,96548,144822,0,954 /
&OBST XB= 386192,434466,144822,193096,0,954 /
&OBST XB= 386192,434466,193096,241370,0,961 /
&OBST XB= 386192,434466,241370,289644,0,961 /
&OBST XB= 386192,434466,289644,337918,0,962 /
&OBST XB= 386192,434466,337918,386192,0,964 /
&OBST XB= 386192,434466,386192,434466,0,966 /
&OBST XB= 386192,434466,434466,482740,0,967 /
&OBST XB= 386192,434466,482740,531014,0,967 /
&OBST XB= 386192,434466,531014,579288,0,998 /
&OBST XB= 386192,434466,579288,627562,0,1017 /
&OBST XB= 386192,434466,627562,675836,0,1034 /
&OBST XB= 386192,434466,675836,724110,0,1062 /
&OBST XB= 386192,434466,724110,772384,0,1075 /
&OBST XB= 386192,434466,772384,820658,0,1082 /
&OBST XB= 386192,434466,820658,868932,0,1071 /
&OBST XB= 386192,434466,868932,917206,0,1119 /
&OBST XB= 386192,434466,917206,965480,0,1048 /
&OBST XB= 434466,482740,0,48274,0,955 /
&OBST XB= 434466,482740,48274,96548,0,955 /
&OBST XB= 434466,482740,96548,144822,0,954 /
&OBST XB= 434466,482740,144822,193096,0,953 /
&OBST XB= 434466,482740,193096,241370,0,954 /
&OBST XB= 434466,482740,241370,289644,0,961 /
&OBST XB= 434466,482740,289644,337918,0,964 /
&OBST XB= 434466,482740,337918,386192,0,977 /
&OBST XB= 434466,482740,386192,434466,0,999 /
&OBST XB= 434466,482740,434466,482740,0,1013 /
&OBST XB= 434466,482740,482740,531014,0,1025 /
&OBST XB= 434466,482740,531014,579288,0,1036 /
&OBST XB= 434466,482740,579288,627562,0,1048 /
&OBST XB= 434466,482740,627562,675836,0,1066 /
&OBST XB= 434466,482740,675836,724110,0,1084 /
&OBST XB= 434466,482740,724110,772384,0,1102 /
&OBST XB= 434466,482740,772384,820658,0,1111 /
&OBST XB= 434466,482740,820658,868932,0,1158 /
&OBST XB= 434466,482740,868932,917206,0,1184 /
&OBST XB= 434466,482740,917206,965480,0,1145 /
&OBST XB= 482740,531014,0,48274,0,954 /
&OBST XB= 482740,531014,48274,96548,0,952 /
&OBST XB= 482740,531014,96548,144822,0,952 /
&OBST XB= 482740,531014,144822,193096,0,953 /
&OBST XB= 482740,531014,193096,241370,0,955 /
&OBST XB= 482740,531014,241370,289644,0,968 /
&OBST XB= 482740,531014,289644,337918,0,978 /
&OBST XB= 482740,531014,337918,386192,0,1028 /
&OBST XB= 482740,531014,386192,434466,0,1014 /
&OBST XB= 482740,531014,434466,482740,0,1051 /
&OBST XB= 482740,531014,482740,531014,0,1080 /
&OBST XB= 482740,531014,531014,579288,0,1088 /
&OBST XB= 482740,531014,579288,627562,0,1110 /
&OBST XB= 482740,531014,627562,675836,0,1108 /
&OBST XB= 482740,531014,675836,724110,0,1114 /
&OBST XB= 482740,531014,724110,772384,0,1135 /
&OBST XB= 482740,531014,772384,820658,0,1196 /
&OBST XB= 482740,531014,820658,868932,0,1219 /
&OBST XB= 482740,531014,868932,917206,0,1240 /
&OBST XB= 482740,531014,917206,965480,0,1305 /
&OBST XB= 531014,579288,0,48274,0,956 /
&OBST XB= 531014,579288,48274,96548,0,956 /
&OBST XB= 531014,579288,96548,144822,0,955 /
&OBST XB= 531014,579288,144822,193096,0,956 /
&OBST XB= 531014,579288,193096,241370,0,979 /
&OBST XB= 531014,579288,241370,289644,0,976 /
&OBST XB= 531014,579288,289644,337918,0,1013 /
&OBST XB= 531014,579288,337918,386192,0,1047 /
&OBST XB= 531014,579288,386192,434466,0,1054 /
&OBST XB= 531014,579288,434466,482740,0,1050 /
&OBST XB= 531014,579288,482740,531014,0,1082 /
&OBST XB= 531014,579288,531014,579288,0,1117 /
&OBST XB= 531014,579288,579288,627562,0,1130 /
&OBST XB= 531014,579288,627562,675836,0,1126 /
&OBST XB= 531014,579288,675836,724110,0,1139 /
&OBST XB= 531014,579288,724110,772384,0,1156 /
&OBST XB= 531014,579288,772384,820658,0,1255 /
&OBST XB= 531014,579288,820658,868932,0,1293 /
&OBST XB= 531014,579288,868932,917206,0,1317 /
&OBST XB= 531014,579288,917206,965480,0,1319 /
&OBST XB= 579288,627562,0,48274,0,957 /
&OBST XB= 579288,627562,48274,96548,0,965 /
&OBST XB= 579288,627562,96548,144822,0,966 /
&OBST XB= 579288,627562,144822,193096,0,970 /
&OBST XB= 579288,627562,193096,241370,0,1004 /
&OBST XB= 579288,627562,241370,289644,0,988 /
&OBST XB= 579288,627562,289644,337918,0,1012 /
&OBST XB= 579288,627562,337918,386192,0,1057 /
&OBST XB= 579288,627562,386192,434466,0,1073 /
&OBST XB= 579288,627562,434466,482740,0,1083 /
&OBST XB= 579288,627562,482740,531014,0,1082 /
&OBST XB= 579288,627562,531014,579288,0,1109 /
&OBST XB= 579288,627562,579288,627562,0,1140 /
&OBST XB= 579288,627562,627562,675836,0,1161 /
&OBST XB= 579288,627562,675836,724110,0,1185 /
&OBST XB= 579288,627562,724110,772384,0,1282 /
&OBST XB= 579288,627562,772384,820658,0,1321 /
&OBST XB= 579288,627562,820658,868932,0,1335 /
&OBST XB= 579288,627562,868932,917206,0,1414 /
&OBST XB= 579288,627562,917206,965480,0,1408 /
&OBST XB= 627562,675836,0,48274,0,962 /
&OBST XB= 627562,675836,48274,96548,0,979 /
&OBST XB= 627562,675836,96548,144822,0,975 /
&OBST XB= 627562,675836,144822,193096,0,998 /
&OBST XB= 627562,675836,193096,241370,0,997 /
&OBST XB= 627562,675836,241370,289644,0,1027 /
&OBST XB= 627562,675836,289644,337918,0,1021 /
&OBST XB= 627562,675836,337918,386192,0,1052 /
&OBST XB= 627562,675836,386192,434466,0,1075 /
&OBST XB= 627562,675836,434466,482740,0,1107 /
&OBST XB= 627562,675836,482740,531014,0,1132 /
&OBST XB= 627562,675836,531014,579288,0,1130 /
&OBST XB= 627562,675836,579288,627562,0,1138 /
&OBST XB= 627562,675836,627562,675836,0,1198 /
&OBST XB= 627562,675836,675836,724110,0,1244 /
&OBST XB= 627562,675836,724110,772384,0,1365 /
&OBST XB= 627562,675836,772384,820658,0,1424 /
&OBST XB= 627562,675836,820658,868932,0,1480 /
&OBST XB= 627562,675836,868932,917206,0,1461 /
&OBST XB= 627562,675836,917206,965480,0,1584 /
&OBST XB= 675836,724110,0,48274,0,1015 /
&OBST XB= 675836,724110,48274,96548,0,1009 /
&OBST XB= 675836,724110,96548,144822,0,990 /
&OBST XB= 675836,724110,144822,193096,0,996 /
&OBST XB= 675836,724110,193096,241370,0,1017 /
&OBST XB= 675836,724110,241370,289644,0,1046 /
&OBST XB= 675836,724110,289644,337918,0,1047 /
&OBST XB= 675836,724110,337918,386192,0,1054 /
&OBST XB= 675836,724110,386192,434466,0,1092 /
&OBST XB= 675836,724110,434466,482740,0,1144 /
&OBST XB= 675836,724110,482740,531014,0,1154 /
&OBST XB= 675836,724110,531014,579288,0,1160 /
&OBST XB= 675836,724110,579288,627562,0,1187 /
&OBST XB= 675836,724110,627562,675836,0,1225 /
&OBST XB= 675836,724110,675836,724110,0,1323 /
&OBST XB= 675836,724110,724110,772384,0,1309 /
&OBST XB= 675836,724110,772384,820658,0,1417 /
&OBST XB= 675836,724110,820658,868932,0,1526 /
&OBST XB= 675836,724110,868932,917206,0,1521 /
&OBST XB= 675836,724110,917206,965480,0,1621 /
&OBST XB= 724110,772384,0,48274,0,1027 /
&OBST XB= 724110,772384,48274,96548,0,1039 /
&OBST XB= 724110,772384,96548,144822,0,1023 /
&OBST XB= 724110,772384,144822,193096,0,1008 /
&OBST XB= 724110,772384,193096,241370,0,1035 /
&OBST XB= 724110,772384,241370,289644,0,1059 /
&OBST XB= 724110,772384,289644,337918,0,1071 /
&OBST XB= 724110,772384,337918,386192,0,1042 /
&OBST XB= 724110,772384,386192,434466,0,1092 /
&OBST XB= 724110,772384,434466,482740,0,1114 /
&OBST XB= 724110,772384,482740,531014,0,1179 /
&OBST XB= 724110,772384,531014,579288,0,1197 /
&OBST XB= 724110,772384,579288,627562,0,1227 /
&OBST XB= 724110,772384,627562,675836,0,1307 /
&OBST XB= 724110,772384,675836,724110,0,1301 /
&OBST XB= 724110,772384,724110,772384,0,1365 /
&OBST XB= 724110,772384,772384,820658,0,1344 /
&OBST XB= 724110,772384,820658,868932,0,1433 /
&OBST XB= 724110,772384,868932,917206,0,1460 /
&OBST XB= 724110,772384,917206,965480,0,1546 /
&OBST XB= 772384,820658,0,48274,0,1034 /
&OBST XB= 772384,820658,48274,96548,0,1042 /
&OBST XB= 772384,820658,96548,144822,0,1054 /
&OBST XB= 772384,820658,144822,193096,0,1075 /
&OBST XB= 772384,820658,193096,241370,0,1081 /
&OBST XB= 772384,820658,241370,289644,0,1078 /
&OBST XB= 772384,820658,289644,337918,0,1077 /
&OBST XB= 772384,820658,337918,386192,0,1066 /
&OBST XB= 772384,820658,386192,434466,0,1122 /
&OBST XB= 772384,820658,434466,482740,0,1132 /
&OBST XB= 772384,820658,482740,531014,0,1181 /
&OBST XB= 772384,820658,531014,579288,0,1273 /
&OBST XB= 772384,820658,579288,627562,0,1330 /
&OBST XB= 772384,820658,627562,675836,0,1373 /
&OBST XB= 772384,820658,675836,724110,0,1340 /
&OBST XB= 772384,820658,724110,772384,0,1383 /
&OBST XB= 772384,820658,772384,820658,0,1399 /
&OBST XB= 772384,820658,820658,868932,0,1540 /
&OBST XB= 772384,820658,868932,917206,0,1631 /
&OBST XB= 772384,820658,917206,965480,0,1586 /
&OBST XB= 820658,868932,0,48274,0,1007 /
&OBST XB= 820658,868932,48274,96548,0,1003 /
&OBST XB= 820658,868932,96548,144822,0,1050 /
&OBST XB= 820658,868932,144822,193096,0,1069 /
&OBST XB= 820658,868932,193096,241370,0,1065 /
&OBST XB= 820658,868932,241370,289644,0,1095 /
&OBST XB= 820658,868932,289644,337918,0,1105 /
&OBST XB= 820658,868932,337918,386192,0,1111 /
&OBST XB= 820658,868932,386192,434466,0,1142 /
&OBST XB= 820658,868932,434466,482740,0,1187 /
&OBST XB= 820658,868932,482740,531014,0,1231 /
&OBST XB= 820658,868932,531014,579288,0,1269 /
&OBST XB= 820658,868932,579288,627562,0,1338 /
&OBST XB= 820658,868932,627562,675836,0,1375 /
&OBST XB= 820658,868932,675836,724110,0,1447 /
&OBST XB= 820658,868932,724110,772384,0,1405 /
&OBST XB= 820658,868932,772384,820658,0,1485 /
&OBST XB= 820658,868932,820658,868932,0,1524 /
&OBST XB= 820658,868932,868932,917206,0,1644 /
&OBST XB= 820658,868932,917206,965480,0,1743 /
&OBST XB= 868932,917206,0,48274,0,984 /
&OBST XB= 868932,917206,48274,96548,0,996 /
&OBST XB= 868932,917206,96548,144822,0,1011 /
&OBST XB= 868932,917206,144822,193096,0,1025 /
&OBST XB= 868932,917206,193096,241370,0,1057 /
&OBST XB= 868932,917206,241370,289644,0,1097 /
&OBST XB= 868932,917206,289644,337918,0,1091 /
&OBST XB= 868932,917206,337918,386192,0,1136 /
&OBST XB= 868932,917206,386192,434466,0,1195 /
&OBST XB= 868932,917206,434466,482740,0,1238 /
&OBST XB= 868932,917206,482740,531014,0,1298 /
&OBST XB= 868932,917206,531014,579288,0,1379 /
&OBST XB= 868932,917206,579288,627562,0,1425 /
&OBST XB= 868932,917206,627562,675836,0,1427 /
&OBST XB= 868932,917206,675836,724110,0,1457 /
&OBST XB= 868932,917206,724110,772384,0,1573 /
&OBST XB= 868932,917206,772384,820658,0,1504 /
&OBST XB= 868932,917206,820658,868932,0,1579 /
&OBST XB= 868932,917206,868932,917206,0,1542 /
&OBST XB= 868932,917206,917206,965480,0,1590 /
&OBST XB= 917206,965480,0,48274,0,982 /
&OBST XB= 917206,965480,48274,96548,0,999 /
&OBST XB= 917206,965480,96548,144822,0,1007 /
&OBST XB= 917206,965480,144822,193096,0,1012 /
&OBST XB= 917206,965480,193096,241370,0,1056 /
&OBST XB= 917206,965480,241370,289644,0,1068 /
&OBST XB= 917206,965480,289644,337918,0,1055 /
&OBST XB= 917206,965480,337918,386192,0,1120 /
&OBST XB= 917206,965480,386192,434466,0,1188 /
&OBST XB= 917206,965480,434466,482740,0,1247 /
&OBST XB= 917206,965480,482740,531014,0,1327 /
&OBST XB= 917206,965480,531014,579288,0,1407 /
&OBST XB= 917206,965480,579288,627562,0,1389 /
&OBST XB= 917206,965480,627562,675836,0,1472 /
&OBST XB= 917206,965480,675836,724110,0,1531 /
&OBST XB= 917206,965480,724110,772384,0,1458 /
&OBST XB= 917206,965480,772384,820658,0,1408 /
&OBST XB= 917206,965480,820658,868932,0,1450 /
&OBST XB= 917206,965480,868932,917206,0,1440 /
&OBST XB= 917206,965480,917206,965480,0,1458 /

&VENT MB='XMIN' SURF_ID='OPEN' / 
&VENT MB='XMAX' SURF_ID='OPEN' / 
&VENT MB='YMIN' SURF_ID='OPEN' / 
&VENT MB='YMAX' SURF_ID='OPEN' / 
&VENT MB='ZMAX' SURF_ID='OPEN' / 

&TAIL /