&HEAD  CHID='Test', Title='This is the Title ' /

&TIME T_END=1.0 /

&DUMP WRITE_XYZ=.TRUE., DT_PL3D=0.1 /

&MESH IJK=10,10,10,XB=-2,2,-2,2,-2,2/


&REAC FUEL='CELLULOSE', C=2.28, H=6.34, O=2.44, SOOT_YIELD=0.02, HEAT_OF_COMBUSTION=14516. /

&MATL ID = 'vegetation'
      DENSITY = 514.
      CONDUCTIVITY = 0.11
      SPECIFIC_HEAT_RAMP = 'cp_dry_veg'
      A = 36300.
      E = 60300.
      NU_SPEC = 0.74
      SPEC_ID = 'CELLULOSE'
      NU_MATL = 0.26
      MATL_ID = 'CHAR' /


&MATL ID                 = 'CHAR'
      DENSITY            = 300.
      CONDUCTIVITY       = 0.052
      SPECIFIC_HEAT_RAMP = 'cp_char'
      N_S                = 0.
      NU_O2_CHAR         = 1.65
      BETA_CHAR          = 0.2
      A                  = 430.
      E                  = 74800.
      SPEC_ID            = 'PRODUCTS','AIR'
      NU_SPEC            = 8.18,-7.2
      MATL_ID            = 'ASH'
      NU_MATL            = 0.02 /

&SURF ID                        = 'foliage'
      MATL_ID                   = 'vegetation'
      MOISTURE_FRACTION         = 0.14
      SURFACE_VOLUME_RATIO      = 3940./

! Terrain
&GEOM ID='UNSTRUCTURED_SOLID'
      SURF_ID='FIRE','INERT'
      VERTS= -1.0, -1.0,  0.0,
              1.0, -1.0,  0.0,
              0.0,  1.0,  0.0,
              0.0,  0.0,  1.0,
      FACES= 1,3,2, 2,
             1,4,3, 1,
             3,4,2, 1,
             2,4,1, 0,


&VENT MB='XMIN', SURF_ID='OPEN'/
&VENT MB='XMAX', SURF_ID='OPEN'/

&VENT MB='YMIN', SURF_ID='OPEN'/
&VENT MB='YMAX', SURF_ID='OPEN'/

&TAIL /